

        *** GPGPU-Sim Simulator Version 3.2.2  [build 0] ***


GPGPU-Sim PTX: simulation mode 0 (can change with PTX_SIM_MODE_FUNC environment variable:
               1=functional simulation only, 0=detailed performance simulator)
GPGPU-Sim: Configuration options:

-network_mode                           1 # Interconnection network mode
-inter_config_file   config_fermi_islip.icnt # Interconnection network config file
-gpgpu_ptx_use_cuobjdump                    1 # Use cuobjdump to extract ptx and sass from binaries
-gpgpu_experimental_lib_support                    0 # Try to extract code from cuda libraries [Broken because of unknown cudaGetExportTable]
-gpgpu_ptx_convert_to_ptxplus                    0 # Convert SASS (native ISA) to ptxplus and run ptxplus
-gpgpu_ptx_force_max_capability                   20 # Force maximum compute capability
-gpgpu_ptx_inst_debug_to_file                    0 # Dump executed instructions' debug information to file
-gpgpu_ptx_inst_debug_file       inst_debug.txt # Executed instructions' debug output file
-gpgpu_ptx_inst_debug_thread_uid                    1 # Thread UID for executed instructions' debug output
-gpgpu_simd_model                       1 # 1 = post-dominator
-gpgpu_shader_core_pipeline              1536:32 # shader core pipeline config, i.e., {<nthread>:<warpsize>}
-gpgpu_tex_cache:l1  4:128:24,L:R:m:N:L,F:128:4,128:2 # per-shader L1 texture cache  (READ-ONLY) config  {<nsets>:<bsize>:<assoc>,<rep>:<wr>:<alloc>:<wr_alloc>,<mshr>:<N>:<merge>,<mq>:<rf>}
-gpgpu_const_cache:l1 64:64:2,L:R:f:N:L,A:2:32,4 # per-shader L1 constant memory cache  (READ-ONLY) config  {<nsets>:<bsize>:<assoc>,<rep>:<wr>:<alloc>:<wr_alloc>,<mshr>:<N>:<merge>,<mq>} 
-gpgpu_cache:il1     4:128:4,L:R:f:N:L,A:2:32,4 # shader L1 instruction cache config  {<nsets>:<bsize>:<assoc>,<rep>:<wr>:<alloc>:<wr_alloc>,<mshr>:<N>:<merge>,<mq>} 
-gpgpu_cache:dl1     32:128:4,L:L:m:N:H,A:32:8,8 # per-shader L1 data cache config  {<nsets>:<bsize>:<assoc>,<rep>:<wr>:<alloc>:<wr_alloc>,<mshr>:<N>:<merge>,<mq> | none}
-gpgpu_cache:dl1PrefL1                 none # per-shader L1 data cache config  {<nsets>:<bsize>:<assoc>,<rep>:<wr>:<alloc>:<wr_alloc>,<mshr>:<N>:<merge>,<mq> | none}
-gpgpu_cache:dl1PreShared                 none # per-shader L1 data cache config  {<nsets>:<bsize>:<assoc>,<rep>:<wr>:<alloc>:<wr_alloc>,<mshr>:<N>:<merge>,<mq> | none}
-gmem_skip_L1D                          0 # global memory access skip L1D cache (implements -Xptxas -dlcm=cg, default=no skip)
-gpgpu_perfect_mem                      0 # enable perfect memory mode (no cache miss)
-n_regfile_gating_group                    4 # group of lanes that should be read/written together)
-gpgpu_clock_gated_reg_file                    0 # enable clock gated reg file for power calculations
-gpgpu_clock_gated_lanes                    0 # enable clock gated lanes for power calculations
-gpgpu_shader_registers                32768 # Number of registers per shader core. Limits number of concurrent CTAs. (default 8192)
-gpgpu_shader_cta                       8 # Maximum number of concurrent CTAs in shader (default 8)
-gpgpu_num_cta_barriers                   16 # Maximum number of named barriers per CTA (default 16)
-gpgpu_n_clusters                      15 # number of processing clusters
-gpgpu_n_cores_per_cluster                    1 # number of simd cores per cluster
-gpgpu_n_cluster_ejection_buffer_size                    8 # number of packets in ejection buffer
-gpgpu_n_ldst_response_buffer_size                    2 # number of response packets in ld/st unit ejection buffer
-gpgpu_shmem_size                   16384 # Size of shared memory per shader core (default 16kB)
-gpgpu_shmem_size                   49152 # Size of shared memory per shader core (default 16kB)
-gpgpu_shmem_size_PrefL1                16384 # Size of shared memory per shader core (default 16kB)
-gpgpu_shmem_size_PrefShared                16384 # Size of shared memory per shader core (default 16kB)
-gpgpu_shmem_num_banks                   32 # Number of banks in the shared memory in each shader core (default 16)
-gpgpu_shmem_limited_broadcast                    0 # Limit shared memory to do one broadcast per cycle (default on)
-gpgpu_shmem_warp_parts                    1 # Number of portions a warp is divided into for shared memory bank conflict check 
-gpgpu_warpdistro_shader                   -1 # Specify which shader core to collect the warp size distribution from
-gpgpu_warp_issue_shader                    0 # Specify which shader core to collect the warp issue distribution from
-gpgpu_local_mem_map                    1 # Mapping from local memory space address to simulated GPU physical address space (default = enabled)
-gpgpu_num_reg_banks                   16 # Number of register banks (default = 8)
-gpgpu_reg_bank_use_warp_id                    0 # Use warp ID in mapping registers to banks (default = off)
-gpgpu_operand_collector_num_units_sp                    6 # number of collector units (default = 4)
-gpgpu_operand_collector_num_units_sfu                    8 # number of collector units (default = 4)
-gpgpu_operand_collector_num_units_mem                    2 # number of collector units (default = 2)
-gpgpu_operand_collector_num_units_gen                    0 # number of collector units (default = 0)
-gpgpu_operand_collector_num_in_ports_sp                    2 # number of collector unit in ports (default = 1)
-gpgpu_operand_collector_num_in_ports_sfu                    1 # number of collector unit in ports (default = 1)
-gpgpu_operand_collector_num_in_ports_mem                    1 # number of collector unit in ports (default = 1)
-gpgpu_operand_collector_num_in_ports_gen                    0 # number of collector unit in ports (default = 0)
-gpgpu_operand_collector_num_out_ports_sp                    2 # number of collector unit in ports (default = 1)
-gpgpu_operand_collector_num_out_ports_sfu                    1 # number of collector unit in ports (default = 1)
-gpgpu_operand_collector_num_out_ports_mem                    1 # number of collector unit in ports (default = 1)
-gpgpu_operand_collector_num_out_ports_gen                    0 # number of collector unit in ports (default = 0)
-gpgpu_coalesce_arch                   13 # Coalescing arch (default = 13, anything else is off for now)
-gpgpu_num_sched_per_core                    2 # Number of warp schedulers per core
-gpgpu_max_insn_issue_per_warp                    1 # Max number of instructions that can be issued per warp in one cycle by scheduler
-gpgpu_simt_core_sim_order                    1 # Select the simulation order of cores in a cluster (0=Fix, 1=Round-Robin)
-gpgpu_pipeline_widths        2,1,1,2,1,1,2 # Pipeline widths ID_OC_SP,ID_OC_SFU,ID_OC_MEM,OC_EX_SP,OC_EX_SFU,OC_EX_MEM,EX_WB
-gpgpu_num_sp_units                     2 # Number of SP units (default=1)
-gpgpu_num_sfu_units                    1 # Number of SF units (default=1)
-gpgpu_num_mem_units                    1 # Number if ldst units (default=1) WARNING: not hooked up to anything
-gpgpu_scheduler                      gto # Scheduler configuration: < lrr | gto | two_level_active > If two_level_active:<num_active_warps>:<inner_prioritization>:<outer_prioritization>For complete list of prioritization values see shader.h enum scheduler_prioritization_typeDefault: gto
-gpgpu_dram_scheduler                    1 # 0 = fifo, 1 = FR-FCFS (defaul)
-gpgpu_dram_partition_queues              8:8:8:8 # i2$:$2d:d2$:$2i
-l2_ideal                               0 # Use a ideal L2 cache that always hit
-gpgpu_cache:dl2     64:128:8,L:B:m:W:L,A:32:4,4:0,32 # unified banked L2 data cache config  {<nsets>:<bsize>:<assoc>,<rep>:<wr>:<alloc>:<wr_alloc>,<mshr>:<N>:<merge>,<mq>}
-gpgpu_cache:dl2_texture_only                    0 # L2 cache used for texture only
-gpgpu_n_mem                            6 # number of memory modules (e.g. memory controllers) in gpu
-gpgpu_n_sub_partition_per_mchannel                    2 # number of memory subpartition in each memory module
-gpgpu_n_mem_per_ctrlr                    2 # number of memory chips per memory controller
-gpgpu_memlatency_stat                   14 # track and display latency statistics 0x2 enables MC, 0x4 enables queue logs
-gpgpu_frfcfs_dram_sched_queue_size                   16 # 0 = unlimited (default); # entries per chip
-gpgpu_dram_return_queue_size                  116 # 0 = unlimited (default); # entries per chip
-gpgpu_dram_buswidth                    4 # default = 4 bytes (8 bytes per cycle at DDR)
-gpgpu_dram_burst_length                    8 # Burst length of each DRAM request (default = 4 data bus cycle)
-dram_data_command_freq_ratio                    4 # Frequency ratio between DRAM data bus and command bus (default = 2 times, i.e. DDR)
-gpgpu_dram_timing_opt nbk=16:CCD=2:RRD=6:RCD=12:RAS=28:RP=12:RC=40: CL=12:WL=4:CDLR=5:WR=12:nbkgrp=4:CCDL=3:RTPL=2 # DRAM timing parameters = {nbk:tCCD:tRRD:tRCD:tRAS:tRP:tRC:CL:WL:tCDLR:tWR:nbkgrp:tCCDL:tRTPL}
-rop_latency                          120 # ROP queue latency (default 85)
-dram_latency                         100 # DRAM latency (default 30)
-gpgpu_mem_addr_mapping dramid@8;00000000.00000000.00000000.00000000.0000RRRR.RRRRRRRR.BBBCCCCB.CCSSSSSS # mapping memory address to dram model {dramid@<start bit>;<memory address map>}
-gpgpu_mem_addr_test                    0 # run sweep test to check address mapping for aliased address
-gpgpu_mem_address_mask                    1 # 0 = old addressing mask, 1 = new addressing mask, 2 = new add. mask + flipped bank sel and chip sel bits
-gpuwattch_xml_file  gpuwattch_gtx480.xml # GPUWattch XML file
-power_simulation_enabled                    1 # Turn on power simulator (1=On, 0=Off)
-power_per_cycle_dump                    0 # Dump detailed power output each cycle
-power_trace_enabled                    0 # produce a file for the power trace (1=On, 0=Off)
-power_trace_zlevel                     6 # Compression level of the power trace output log (0=no comp, 9=highest)
-steady_power_levels_enabled                    0 # produce a file for the steady power levels (1=On, 0=Off)
-steady_state_definition                  8:4 # allowed deviation:number of samples
-gpgpu_max_cycle                        0 # terminates gpu simulation early (0 = no limit)
-gpgpu_max_insn                         0 # terminates gpu simulation early (0 = no limit)
-gpgpu_max_cta                          0 # terminates gpu simulation early (0 = no limit)
-gpgpu_runtime_stat                   500 # display runtime statistics such as dram utilization {<freq>:<flag>}
-liveness_message_freq                    1 # Minimum number of seconds between simulation liveness messages (0 = always print)
-gpgpu_flush_l1_cache                    0 # Flush L1 cache at the end of each kernel call
-gpgpu_flush_l2_cache                    0 # Flush L2 cache at the end of each kernel call
-gpgpu_deadlock_detect                    1 # Stop the simulation at deadlock (1=on (default), 0=off)
-gpgpu_ptx_instruction_classification                    0 # if enabled will classify ptx instruction types per kernel (Max 255 kernels now)
-gpgpu_ptx_sim_mode                     0 # Select between Performance (default) or Functional simulation (1)
-gpgpu_clock_domains 700.0:700.0:700.0:924.0 # Clock Domain Frequencies in MhZ {<Core Clock>:<ICNT Clock>:<L2 Clock>:<DRAM Clock>}
-gpgpu_max_concurrent_kernel                    8 # maximum kernels that can run concurrently on GPU
-gpgpu_cflog_interval                    0 # Interval between each snapshot in control flow logger
-visualizer_enabled                     0 # Turn on visualizer output (1=On, 0=Off)
-visualizer_outputfile                 NULL # Specifies the output log file for visualizer
-visualizer_zlevel                      6 # Compression level of the visualizer output log (0=no comp, 9=highest)
-trace_enabled                          0 # Turn on traces
-trace_components                    none # comma seperated list of traces to enable. Complete list found in trace_streams.tup. Default none
-trace_sampling_core                    0 # The core which is printed using CORE_DPRINTF. Default 0
-trace_sampling_memory_partition                   -1 # The memory partition which is printed using MEMPART_DPRINTF. Default -1 (i.e. all)
-enable_ptx_file_line_stats                    1 # Turn on PTX source line statistic profiling. (1 = On)
-ptx_line_stats_filename gpgpu_inst_stats.txt # Output file for PTX source line statistics.
-save_embedded_ptx                      0 # saves ptx files embedded in binary as <n>.ptx
-keep                                   0 # keep intermediate files created by GPGPU-Sim when interfacing with external programs
-gpgpu_ptx_save_converted_ptxplus                    0 # Saved converted ptxplus to a file
-ptx_opcode_latency_int         4,13,4,5,145 # Opcode latencies for integers <ADD,MAX,MUL,MAD,DIV>Default 1,1,19,25,145
-ptx_opcode_latency_fp          4,13,4,5,39 # Opcode latencies for single precision floating points <ADD,MAX,MUL,MAD,DIV>Default 1,1,1,1,30
-ptx_opcode_latency_dp         8,19,8,8,330 # Opcode latencies for double precision floating points <ADD,MAX,MUL,MAD,DIV>Default 8,8,8,8,335
-ptx_opcode_initiation_int            1,2,2,1,8 # Opcode initiation intervals for integers <ADD,MAX,MUL,MAD,DIV>Default 1,1,4,4,32
-ptx_opcode_initiation_fp            1,2,1,1,4 # Opcode initiation intervals for single precision floating points <ADD,MAX,MUL,MAD,DIV>Default 1,1,1,1,5
-ptx_opcode_initiation_dp         8,16,8,8,130 # Opcode initiation intervals for double precision floating points <ADD,MAX,MUL,MAD,DIV>Default 8,8,8,8,130
DRAM Timing Options:
nbk                                    16 # number of banks
CCD                                     2 # column to column delay
RRD                                     6 # minimal delay between activation of rows in different banks
RCD                                    12 # row to column delay
RAS                                    28 # time needed to activate row
RP                                     12 # time needed to precharge (deactivate) row
RC                                     40 # row cycle time
CDLR                                    5 # switching from write to read (changes tWTR)
WR                                     12 # last data-in to row precharge
CL                                     12 # CAS latency
WL                                      4 # Write latency
nbkgrp                                  4 # number of bank groups
CCDL                                    3 # column to column delay between accesses to different bank groups
RTPL                                    2 # read to precharge delay between accesses to different bank groups
Total number of memory sub partition = 12
addr_dec_mask[CHIP]  = 0000000000000000 	high:64 low:0
addr_dec_mask[BK]    = 000000000000e100 	high:16 low:8
addr_dec_mask[ROW]   = 000000000fff0000 	high:28 low:16
addr_dec_mask[COL]   = 0000000000001eff 	high:13 low:0
addr_dec_mask[BURST] = 000000000000003f 	high:6 low:0
sub_partition_id_mask = 0000000000000100
GPGPU-Sim uArch: clock freqs: 700000000.000000:700000000.000000:700000000.000000:924000000.000000
GPGPU-Sim uArch: clock periods: 0.00000000142857142857:0.00000000142857142857:0.00000000142857142857:0.00000000108225108225
*** Initializing Memory Statistics ***
GPGPU-Sim uArch: interconnect node map (shaderID+MemID to icntID)
GPGPU-Sim uArch: Memory nodes ID start from index: 15
GPGPU-Sim uArch:    0   1   2   3   4
GPGPU-Sim uArch:    5   6   7   8   9
GPGPU-Sim uArch:   10  11  12  13  14
GPGPU-Sim uArch:   15  16  17  18  19
GPGPU-Sim uArch:   20  21  22  23  24
GPGPU-Sim uArch:   25  26
GPGPU-Sim uArch: interconnect node reverse map (icntID to shaderID+MemID)
GPGPU-Sim uArch: Memory nodes start from ID: 15
GPGPU-Sim uArch:    0   1   2   3   4
GPGPU-Sim uArch:    5   6   7   8   9
GPGPU-Sim uArch:   10  11  12  13  14
GPGPU-Sim uArch:   15  16  17  18  19
GPGPU-Sim uArch:   20  21  22  23  24
GPGPU-Sim uArch:   25  26
2bbf731bfae6177c4ba2b89977409687  /root/lab1/GPUlab1-optimized/reduction
GPGPU-Sim uArch: performance model initialization complete.
GPGPU-Sim PTX: __cudaRegisterFatBinary, fat_cubin_handle = 1, filename=main.cu
self exe links to: /root/lab1/GPUlab1-optimized/reduction
Running md5sum using "md5sum /root/lab1/GPUlab1-optimized/reduction "
Running cuobjdump using "$CUDA_INSTALL_PATH/bin/cuobjdump -ptx -elf -sass /root/lab1/GPUlab1-optimized/reduction > _cuobjdump_complete_output_zCZ3wG"
Parsing file _cuobjdump_complete_output_zCZ3wG
######### cuobjdump parser ########
## Adding new section ELF
Adding arch: sm_10
Adding identifier: main.cu
## Adding new section PTX
Adding ptx filename: _cuobjdump_1.ptx
Adding arch: sm_10
Adding identifier: main.cu
## Adding new section ELF
   syntax error near "
" on line 299
Done parsing!!!
GPGPU-Sim PTX: __cudaRegisterFunction _Z9reductionPfS_j : hostFun 0x0x400f40, fat_cubin_handle = 1
GPGPU-Sim PTX: allocating shared region for "__cuda___cuda_local_var_16314_59_non_const_partialsum20" from 0x0 to 0x1000 (shared memory space)
GPGPU-Sim PTX: instruction assembly for function '_Z9reductionPfS_j'...   done.
GPGPU-Sim PTX: finding reconvergence points for '_Z9reductionPfS_j'...
GPGPU-Sim PTX: Finding dominators for '_Z9reductionPfS_j'...
GPGPU-Sim PTX: Finding immediate dominators for '_Z9reductionPfS_j'...
GPGPU-Sim PTX: Finding postdominators for '_Z9reductionPfS_j'...
GPGPU-Sim PTX: Finding immediate postdominators for '_Z9reductionPfS_j'...
GPGPU-Sim PTX: pre-decoding instructions for '_Z9reductionPfS_j'...
GPGPU-Sim PTX: reconvergence points for _Z9reductionPfS_j...
GPGPU-Sim PTX:  1 (potential) branch divergence @  PC=0x060 (_1.ptx:73) @%p1 bra $Lt_0_3842;
GPGPU-Sim PTX:    immediate post dominator      @  PC=0x0b0 (_1.ptx:87) add.u32 %r8, %r4, %r1;
GPGPU-Sim PTX:  2 (potential) branch divergence @  PC=0x098 (_1.ptx:81) bra.uni $Lt_0_3586;
GPGPU-Sim PTX:    immediate post dominator      @  PC=0x0b0 (_1.ptx:87) add.u32 %r8, %r4, %r1;
GPGPU-Sim PTX:  3 (potential) branch divergence @  PC=0x0e8 (_1.ptx:96) @%p2 bra $Lt_0_4354;
GPGPU-Sim PTX:    immediate post dominator      @  PC=0x148 (_1.ptx:113) mov.s32 %r12, %r1;
GPGPU-Sim PTX:  4 (potential) branch divergence @  PC=0x130 (_1.ptx:106) bra.uni $Lt_0_4098;
GPGPU-Sim PTX:    immediate post dominator      @  PC=0x148 (_1.ptx:113) mov.s32 %r12, %r1;
GPGPU-Sim PTX:  5 (potential) branch divergence @  PC=0x160 (_1.ptx:116) @%p3 bra $Lt_0_4610;
GPGPU-Sim PTX:    immediate post dominator      @  PC=0x1e8 (_1.ptx:141) ld.shared.f32 %f8, [__cuda___cuda_local_var_16314_59_non_const_partialsum20+0];
GPGPU-Sim PTX:  6 (potential) branch divergence @  PC=0x178 (_1.ptx:121) @%p4 bra $Lt_0_5378;
GPGPU-Sim PTX:    immediate post dominator      @  PC=0x1c0 (_1.ptx:133) bar.sync 0;
GPGPU-Sim PTX:  7 (potential) branch divergence @  PC=0x1e0 (_1.ptx:138) @%p5 bra $Lt_0_5122;
GPGPU-Sim PTX:    immediate post dominator      @  PC=0x1e8 (_1.ptx:141) ld.shared.f32 %f8, [__cuda___cuda_local_var_16314_59_non_const_partialsum20+0];
GPGPU-Sim PTX: ... end of reconvergence points for _Z9reductionPfS_j
GPGPU-Sim PTX: ... done pre-decoding instructions for '_Z9reductionPfS_j'.
GPGPU-Sim PTX: finished parsing EMBEDDED .ptx file _1.ptx
Adding _cuobjdump_1.ptx with cubin handle 1
GPGPU-Sim PTX: extracting embedded .ptx to temporary file "_ptx_ChhtPu"
Running: cat _ptx_ChhtPu | sed 's/.version 1.5/.version 1.4/' | sed 's/, texmode_independent//' | sed 's/\(\.extern \.const\[1\] .b8 \w\+\)\[\]/\1\[1\]/' | sed 's/const\[.\]/const\[0\]/g' > _ptx2_xhDT7i
GPGPU-Sim PTX: generating ptxinfo using "$CUDA_INSTALL_PATH/bin/ptxas --gpu-name=sm_20 -v _ptx2_xhDT7i --output-file  /dev/null 2> _ptx_ChhtPuinfo"
GPGPU-Sim PTX: Kernel '_Z9reductionPfS_j' : regs=10, lmem=0, smem=4096, cmem=52
GPGPU-Sim PTX: removing ptxinfo using "rm -f _ptx_ChhtPu _ptx2_xhDT7i _ptx_ChhtPuinfo"
GPGPU-Sim PTX: loading globals with explicit initializers... 
GPGPU-Sim PTX: finished loading globals (0 bytes total).
GPGPU-Sim PTX: loading constants with explicit initializers...  done.
GPGPU-Sim PTX: __cudaRegisterFatBinary, fat_cubin_handle = 2, filename=

Setting up the problem...0.050206 s
    Input size = 1000000
Allocating device variables...0.000005 s
Copying data from host to device...0.210490 s
Launching kernel...
GPGPU-Sim PTX: cudaLaunch for 0x0x400f40 (mode=performance simulation) on stream 0
GPGPU-Sim PTX: pushing kernel '_Z9reductionPfS_j' to stream 0, gridDim= (977,1,1) blockDim = (512,1,1) 
kernel '_Z9reductionPfS_j' transfer to GPU hardware scheduler
GPGPU-Sim uArch: Shader 1 bind to kernel 1 '_Z9reductionPfS_j'
GPGPU-Sim uArch: CTA/core = 3, limited by: threads
GPGPU-Sim uArch: core:  1, cta: 0 initialized @(1,0)
GPGPU-Sim uArch: Shader 2 bind to kernel 1 '_Z9reductionPfS_j'
GPGPU-Sim uArch: core:  2, cta: 0 initialized @(1,0)
GPGPU-Sim uArch: Shader 3 bind to kernel 1 '_Z9reductionPfS_j'
GPGPU-Sim uArch: core:  3, cta: 0 initialized @(1,0)
GPGPU-Sim uArch: Shader 4 bind to kernel 1 '_Z9reductionPfS_j'
GPGPU-Sim uArch: core:  4, cta: 0 initialized @(1,0)
GPGPU-Sim uArch: Shader 5 bind to kernel 1 '_Z9reductionPfS_j'
GPGPU-Sim uArch: core:  5, cta: 0 initialized @(1,0)
GPGPU-Sim uArch: Shader 6 bind to kernel 1 '_Z9reductionPfS_j'
GPGPU-Sim uArch: core:  6, cta: 0 initialized @(1,0)
GPGPU-Sim uArch: Shader 7 bind to kernel 1 '_Z9reductionPfS_j'
GPGPU-Sim uArch: core:  7, cta: 0 initialized @(1,0)
GPGPU-Sim uArch: Shader 8 bind to kernel 1 '_Z9reductionPfS_j'
GPGPU-Sim uArch: core:  8, cta: 0 initialized @(1,0)
GPGPU-Sim uArch: Shader 9 bind to kernel 1 '_Z9reductionPfS_j'
GPGPU-Sim uArch: core:  9, cta: 0 initialized @(1,0)
GPGPU-Sim uArch: Shader 10 bind to kernel 1 '_Z9reductionPfS_j'
GPGPU-Sim uArch: core: 10, cta: 0 initialized @(1,0)
GPGPU-Sim uArch: Shader 11 bind to kernel 1 '_Z9reductionPfS_j'
GPGPU-Sim uArch: core: 11, cta: 0 initialized @(1,0)
GPGPU-Sim uArch: Shader 12 bind to kernel 1 '_Z9reductionPfS_j'
GPGPU-Sim uArch: core: 12, cta: 0 initialized @(1,0)
GPGPU-Sim uArch: Shader 13 bind to kernel 1 '_Z9reductionPfS_j'
GPGPU-Sim uArch: core: 13, cta: 0 initialized @(1,0)
GPGPU-Sim uArch: Shader 14 bind to kernel 1 '_Z9reductionPfS_j'
GPGPU-Sim uArch: core: 14, cta: 0 initialized @(1,0)
GPGPU-Sim uArch: Shader 0 bind to kernel 1 '_Z9reductionPfS_j'
GPGPU-Sim uArch: core:  0, cta: 0 initialized @(1,0)
GPGPU-Sim uArch: core:  1, cta: 1 initialized @(2,0)
GPGPU-Sim uArch: core:  2, cta: 1 initialized @(2,0)
GPGPU-Sim uArch: core:  3, cta: 1 initialized @(2,0)
GPGPU-Sim uArch: core:  4, cta: 1 initialized @(2,0)
GPGPU-Sim uArch: core:  5, cta: 1 initialized @(2,0)
GPGPU-Sim uArch: core:  6, cta: 1 initialized @(2,0)
GPGPU-Sim uArch: core:  7, cta: 1 initialized @(2,0)
GPGPU-Sim uArch: core:  8, cta: 1 initialized @(2,0)
GPGPU-Sim uArch: core:  9, cta: 1 initialized @(2,0)
GPGPU-Sim uArch: core: 10, cta: 1 initialized @(2,0)
GPGPU-Sim uArch: core: 11, cta: 1 initialized @(2,0)
GPGPU-Sim uArch: core: 12, cta: 1 initialized @(2,0)
GPGPU-Sim uArch: core: 13, cta: 1 initialized @(2,0)
GPGPU-Sim uArch: core: 14, cta: 1 initialized @(2,0)
GPGPU-Sim uArch: core:  0, cta: 1 initialized @(2,0)
GPGPU-Sim uArch: core:  1, cta: 2 initialized @(3,0)
GPGPU-Sim uArch: core:  2, cta: 2 initialized @(3,0)
GPGPU-Sim uArch: core:  3, cta: 2 initialized @(3,0)
GPGPU-Sim uArch: core:  4, cta: 2 initialized @(3,0)
GPGPU-Sim uArch: core:  5, cta: 2 initialized @(3,0)
GPGPU-Sim uArch: core:  6, cta: 2 initialized @(3,0)
GPGPU-Sim uArch: core:  7, cta: 2 initialized @(3,0)
GPGPU-Sim uArch: core:  8, cta: 2 initialized @(3,0)
GPGPU-Sim uArch: core:  9, cta: 2 initialized @(3,0)
GPGPU-Sim uArch: core: 10, cta: 2 initialized @(3,0)
GPGPU-Sim uArch: core: 11, cta: 2 initialized @(3,0)
GPGPU-Sim uArch: core: 12, cta: 2 initialized @(3,0)
GPGPU-Sim uArch: core: 13, cta: 2 initialized @(3,0)
GPGPU-Sim uArch: core: 14, cta: 2 initialized @(3,0)
GPGPU-Sim uArch: core:  0, cta: 2 initialized @(3,0)
GPGPU-Sim PTX: 100000 instructions simulated : ctaid=(15,0,0) tid=(191,0,0)
GPGPU-Sim uArch: cycles simulated: 500  inst.: 134016 (ipc=268.0) sim_rate=134016 (inst/sec) elapsed = 0:0:00:01 / Tue Jan 29 23:09:35 2019
GPGPU-Sim PTX: 200000 instructions simulated : ctaid=(24,0,0) tid=(383,0,0)
GPGPU-Sim PTX: 300000 instructions simulated : ctaid=(10,0,0) tid=(383,0,0)
GPGPU-Sim uArch: cycles simulated: 1000  inst.: 345600 (ipc=345.6) sim_rate=172800 (inst/sec) elapsed = 0:0:00:02 / Tue Jan 29 23:09:36 2019
GPGPU-Sim PTX: 400000 instructions simulated : ctaid=(42,0,0) tid=(287,0,0)
GPGPU-Sim uArch: cycles simulated: 1500  inst.: 397632 (ipc=265.1) sim_rate=132544 (inst/sec) elapsed = 0:0:00:03 / Tue Jan 29 23:09:37 2019
GPGPU-Sim PTX: 500000 instructions simulated : ctaid=(9,0,0) tid=(63,0,0)
GPGPU-Sim PTX: 600000 instructions simulated : ctaid=(13,0,0) tid=(287,0,0)
GPGPU-Sim uArch: cycles simulated: 2000  inst.: 632160 (ipc=316.1) sim_rate=158040 (inst/sec) elapsed = 0:0:00:04 / Tue Jan 29 23:09:38 2019
GPGPU-Sim PTX: 700000 instructions simulated : ctaid=(30,0,0) tid=(223,0,0)
GPGPU-Sim PTX: 800000 instructions simulated : ctaid=(2,0,0) tid=(31,0,0)
GPGPU-Sim PTX: 900000 instructions simulated : ctaid=(43,0,0) tid=(223,0,0)
GPGPU-Sim PTX: 1000000 instructions simulated : ctaid=(24,0,0) tid=(447,0,0)
GPGPU-Sim uArch: cycles simulated: 3000  inst.: 999968 (ipc=333.3) sim_rate=199993 (inst/sec) elapsed = 0:0:00:05 / Tue Jan 29 23:09:39 2019
GPGPU-Sim PTX: 1100000 instructions simulated : ctaid=(18,0,0) tid=(31,0,0)
GPGPU-Sim PTX: 1200000 instructions simulated : ctaid=(4,0,0) tid=(287,0,0)
GPGPU-Sim PTX: 1300000 instructions simulated : ctaid=(29,0,0) tid=(287,0,0)
GPGPU-Sim PTX: 1400000 instructions simulated : ctaid=(26,0,0) tid=(63,0,0)
GPGPU-Sim PTX: 1500000 instructions simulated : ctaid=(36,0,0) tid=(127,0,0)
GPGPU-Sim uArch: cycles simulated: 3500  inst.: 1404960 (ipc=401.4) sim_rate=234160 (inst/sec) elapsed = 0:0:00:06 / Tue Jan 29 23:09:40 2019
GPGPU-Sim PTX: 1600000 instructions simulated : ctaid=(44,0,0) tid=(63,0,0)
GPGPU-Sim PTX: 1700000 instructions simulated : ctaid=(36,0,0) tid=(383,0,0)
GPGPU-Sim PTX: 1800000 instructions simulated : ctaid=(4,0,0) tid=(31,0,0)
GPGPU-Sim PTX: 1900000 instructions simulated : ctaid=(27,0,0) tid=(63,0,0)
GPGPU-Sim uArch: cycles simulated: 4000  inst.: 1790416 (ipc=447.6) sim_rate=255773 (inst/sec) elapsed = 0:0:00:07 / Tue Jan 29 23:09:41 2019
GPGPU-Sim PTX: 2000000 instructions simulated : ctaid=(42,0,0) tid=(367,0,0)
GPGPU-Sim PTX: 2100000 instructions simulated : ctaid=(28,0,0) tid=(199,0,0)
GPGPU-Sim PTX: 2200000 instructions simulated : ctaid=(34,0,0) tid=(355,0,0)
GPGPU-Sim uArch: cycles simulated: 4500  inst.: 2168232 (ipc=481.8) sim_rate=271029 (inst/sec) elapsed = 0:0:00:08 / Tue Jan 29 23:09:42 2019
GPGPU-Sim PTX: 2300000 instructions simulated : ctaid=(1,0,0) tid=(91,0,0)
GPGPU-Sim PTX: 2400000 instructions simulated : ctaid=(0,0,0) tid=(183,0,0)
GPGPU-Sim PTX: 2500000 instructions simulated : ctaid=(34,0,0) tid=(443,0,0)
GPGPU-Sim PTX: 2600000 instructions simulated : ctaid=(19,0,0) tid=(180,0,0)
GPGPU-Sim uArch: cycles simulated: 5000  inst.: 2535865 (ipc=507.2) sim_rate=281762 (inst/sec) elapsed = 0:0:00:09 / Tue Jan 29 23:09:43 2019
GPGPU-Sim PTX: 2700000 instructions simulated : ctaid=(1,0,0) tid=(89,0,0)
GPGPU-Sim PTX: 2800000 instructions simulated : ctaid=(40,0,0) tid=(309,0,0)
GPGPU-Sim PTX: 2900000 instructions simulated : ctaid=(12,0,0) tid=(43,0,0)
GPGPU-Sim PTX: 3000000 instructions simulated : ctaid=(22,0,0) tid=(164,0,0)
GPGPU-Sim uArch: cycles simulated: 5500  inst.: 2891658 (ipc=525.8) sim_rate=289165 (inst/sec) elapsed = 0:0:00:10 / Tue Jan 29 23:09:44 2019
GPGPU-Sim PTX: 3100000 instructions simulated : ctaid=(40,0,0) tid=(491,0,0)
GPGPU-Sim uArch: Shader 3 finished CTA #0 (5706,0), 2 CTAs running
GPGPU-Sim uArch: core:  3, cta: 0 initialized @(5707,0)
GPGPU-Sim uArch: Shader 4 finished CTA #0 (5845,0), 2 CTAs running
GPGPU-Sim uArch: core:  4, cta: 0 initialized @(5846,0)
GPGPU-Sim uArch: Shader 8 finished CTA #0 (5902,0), 2 CTAs running
GPGPU-Sim uArch: core:  8, cta: 0 initialized @(5903,0)
GPGPU-Sim uArch: Shader 10 finished CTA #0 (5908,0), 2 CTAs running
GPGPU-Sim uArch: core: 10, cta: 0 initialized @(5909,0)
GPGPU-Sim uArch: Shader 1 finished CTA #0 (5935,0), 2 CTAs running
GPGPU-Sim uArch: core:  1, cta: 0 initialized @(5936,0)
GPGPU-Sim PTX: 3200000 instructions simulated : ctaid=(40,0,0) tid=(5,0,0)
GPGPU-Sim PTX: 3300000 instructions simulated : ctaid=(44,0,0) tid=(179,0,0)
GPGPU-Sim uArch: Shader 14 finished CTA #0 (6325,0), 2 CTAs running
GPGPU-Sim uArch: core: 14, cta: 0 initialized @(6326,0)
GPGPU-Sim uArch: Shader 3 finished CTA #1 (6337,0), 2 CTAs running
GPGPU-Sim uArch: core:  3, cta: 1 initialized @(6338,0)
GPGPU-Sim uArch: Shader 6 finished CTA #0 (6346,0), 2 CTAs running
GPGPU-Sim uArch: core:  6, cta: 0 initialized @(6347,0)
GPGPU-Sim uArch: Shader 12 finished CTA #0 (6365,0), 2 CTAs running
GPGPU-Sim uArch: core: 12, cta: 0 initialized @(6366,0)
GPGPU-Sim uArch: Shader 7 finished CTA #0 (6393,0), 2 CTAs running
GPGPU-Sim uArch: core:  7, cta: 0 initialized @(6394,0)
GPGPU-Sim uArch: Shader 11 finished CTA #0 (6405,0), 2 CTAs running
GPGPU-Sim uArch: core: 11, cta: 0 initialized @(6406,0)
GPGPU-Sim uArch: Shader 13 finished CTA #0 (6411,0), 2 CTAs running
GPGPU-Sim uArch: core: 13, cta: 0 initialized @(6412,0)
GPGPU-Sim uArch: Shader 9 finished CTA #0 (6443,0), 2 CTAs running
GPGPU-Sim uArch: core:  9, cta: 0 initialized @(6444,0)
GPGPU-Sim uArch: cycles simulated: 6500  inst.: 3234206 (ipc=497.6) sim_rate=294018 (inst/sec) elapsed = 0:0:00:11 / Tue Jan 29 23:09:45 2019
GPGPU-Sim uArch: Shader 2 finished CTA #0 (6557,0), 2 CTAs running
GPGPU-Sim uArch: core:  2, cta: 0 initialized @(6558,0)
GPGPU-Sim uArch: Shader 4 finished CTA #1 (6563,0), 2 CTAs running
GPGPU-Sim uArch: core:  4, cta: 1 initialized @(6564,0)
GPGPU-Sim uArch: Shader 5 finished CTA #0 (6566,0), 2 CTAs running
GPGPU-Sim uArch: core:  5, cta: 0 initialized @(6567,0)
GPGPU-Sim PTX: 3400000 instructions simulated : ctaid=(52,0,0) tid=(456,0,0)
GPGPU-Sim uArch: Shader 8 finished CTA #1 (6620,0), 2 CTAs running
GPGPU-Sim uArch: core:  8, cta: 1 initialized @(6621,0)
GPGPU-Sim uArch: Shader 10 finished CTA #1 (6626,0), 2 CTAs running
GPGPU-Sim uArch: core: 10, cta: 1 initialized @(6627,0)
GPGPU-Sim uArch: Shader 0 finished CTA #0 (6641,0), 2 CTAs running
GPGPU-Sim uArch: core:  0, cta: 0 initialized @(6642,0)
GPGPU-Sim uArch: Shader 1 finished CTA #1 (6644,0), 2 CTAs running
GPGPU-Sim uArch: core:  1, cta: 1 initialized @(6645,0)
GPGPU-Sim uArch: cycles simulated: 7000  inst.: 3343365 (ipc=477.6) sim_rate=278613 (inst/sec) elapsed = 0:0:00:12 / Tue Jan 29 23:09:46 2019
GPGPU-Sim uArch: Shader 14 finished CTA #1 (7039,0), 2 CTAs running
GPGPU-Sim uArch: core: 14, cta: 1 initialized @(7040,0)
GPGPU-Sim PTX: 3500000 instructions simulated : ctaid=(63,0,0) tid=(39,0,0)
GPGPU-Sim uArch: Shader 6 finished CTA #1 (7060,0), 2 CTAs running
GPGPU-Sim uArch: core:  6, cta: 1 initialized @(7061,0)
GPGPU-Sim uArch: Shader 12 finished CTA #1 (7078,0), 2 CTAs running
GPGPU-Sim uArch: core: 12, cta: 1 initialized @(7079,0)
GPGPU-Sim uArch: Shader 0 finished CTA #1 (7087,0), 2 CTAs running
GPGPU-Sim uArch: core:  0, cta: 1 initialized @(7088,0)
GPGPU-Sim uArch: Shader 7 finished CTA #1 (7108,0), 2 CTAs running
GPGPU-Sim uArch: core:  7, cta: 1 initialized @(7109,0)
GPGPU-Sim uArch: Shader 9 finished CTA #1 (7114,0), 2 CTAs running
GPGPU-Sim uArch: core:  9, cta: 1 initialized @(7115,0)
GPGPU-Sim uArch: Shader 11 finished CTA #1 (7120,0), 2 CTAs running
GPGPU-Sim uArch: core: 11, cta: 1 initialized @(7121,0)
GPGPU-Sim uArch: Shader 13 finished CTA #1 (7126,0), 2 CTAs running
GPGPU-Sim uArch: core: 13, cta: 1 initialized @(7127,0)
GPGPU-Sim uArch: Shader 3 finished CTA #2 (7141,0), 2 CTAs running
GPGPU-Sim uArch: core:  3, cta: 2 initialized @(7142,0)
GPGPU-Sim uArch: Shader 2 finished CTA #1 (7233,0), 2 CTAs running
GPGPU-Sim uArch: core:  2, cta: 1 initialized @(7234,0)
GPGPU-Sim uArch: Shader 5 finished CTA #1 (7237,0), 2 CTAs running
GPGPU-Sim uArch: core:  5, cta: 1 initialized @(7238,0)
GPGPU-Sim uArch: Shader 4 finished CTA #2 (7279,0), 2 CTAs running
GPGPU-Sim uArch: core:  4, cta: 2 initialized @(7280,0)
GPGPU-Sim PTX: 3600000 instructions simulated : ctaid=(76,0,0) tid=(327,0,0)
GPGPU-Sim uArch: Shader 1 finished CTA #2 (7356,0), 2 CTAs running
GPGPU-Sim uArch: core:  1, cta: 2 initialized @(7357,0)
GPGPU-Sim uArch: Shader 8 finished CTA #2 (7428,0), 2 CTAs running
GPGPU-Sim uArch: core:  8, cta: 2 initialized @(7429,0)
GPGPU-Sim uArch: Shader 10 finished CTA #2 (7432,0), 2 CTAs running
GPGPU-Sim uArch: core: 10, cta: 2 initialized @(7433,0)
GPGPU-Sim uArch: cycles simulated: 7500  inst.: 3485797 (ipc=464.8) sim_rate=268138 (inst/sec) elapsed = 0:0:00:13 / Tue Jan 29 23:09:47 2019
GPGPU-Sim PTX: 3700000 instructions simulated : ctaid=(62,0,0) tid=(487,0,0)
GPGPU-Sim uArch: Shader 14 finished CTA #2 (7716,0), 2 CTAs running
GPGPU-Sim uArch: core: 14, cta: 2 initialized @(7717,0)
GPGPU-Sim uArch: Shader 6 finished CTA #2 (7724,0), 2 CTAs running
GPGPU-Sim uArch: core:  6, cta: 2 initialized @(7725,0)
GPGPU-Sim uArch: Shader 12 finished CTA #2 (7730,0), 2 CTAs running
GPGPU-Sim uArch: core: 12, cta: 2 initialized @(7731,0)
GPGPU-Sim uArch: Shader 0 finished CTA #2 (7734,0), 2 CTAs running
GPGPU-Sim uArch: core:  0, cta: 2 initialized @(7735,0)
GPGPU-Sim uArch: Shader 11 finished CTA #2 (7743,0), 2 CTAs running
GPGPU-Sim uArch: core: 11, cta: 2 initialized @(7744,0)
GPGPU-Sim uArch: Shader 13 finished CTA #2 (7745,0), 2 CTAs running
GPGPU-Sim uArch: core: 13, cta: 2 initialized @(7746,0)
GPGPU-Sim uArch: Shader 7 finished CTA #2 (7751,0), 2 CTAs running
GPGPU-Sim uArch: core:  7, cta: 2 initialized @(7752,0)
GPGPU-Sim uArch: Shader 9 finished CTA #2 (7753,0), 2 CTAs running
GPGPU-Sim uArch: core:  9, cta: 2 initialized @(7754,0)
GPGPU-Sim uArch: Shader 2 finished CTA #2 (7757,0), 2 CTAs running
GPGPU-Sim uArch: core:  2, cta: 2 initialized @(7758,0)
GPGPU-Sim uArch: Shader 5 finished CTA #2 (7770,0), 2 CTAs running
GPGPU-Sim uArch: core:  5, cta: 2 initialized @(7771,0)
GPGPU-Sim PTX: 3800000 instructions simulated : ctaid=(86,0,0) tid=(103,0,0)
GPGPU-Sim PTX: 3900000 instructions simulated : ctaid=(65,0,0) tid=(71,0,0)
GPGPU-Sim uArch: cycles simulated: 8000  inst.: 3741125 (ipc=467.6) sim_rate=267223 (inst/sec) elapsed = 0:0:00:14 / Tue Jan 29 23:09:48 2019
GPGPU-Sim PTX: 4000000 instructions simulated : ctaid=(47,0,0) tid=(103,0,0)
GPGPU-Sim PTX: 4100000 instructions simulated : ctaid=(56,0,0) tid=(359,0,0)
GPGPU-Sim PTX: 4200000 instructions simulated : ctaid=(45,0,0) tid=(455,0,0)
GPGPU-Sim uArch: cycles simulated: 8500  inst.: 4072197 (ipc=479.1) sim_rate=271479 (inst/sec) elapsed = 0:0:00:15 / Tue Jan 29 23:09:49 2019
GPGPU-Sim PTX: 4300000 instructions simulated : ctaid=(64,0,0) tid=(167,0,0)
GPGPU-Sim PTX: 4400000 instructions simulated : ctaid=(50,0,0) tid=(455,0,0)
GPGPU-Sim PTX: 4500000 instructions simulated : ctaid=(61,0,0) tid=(263,0,0)
GPGPU-Sim PTX: 4600000 instructions simulated : ctaid=(52,0,0) tid=(119,0,0)
GPGPU-Sim uArch: cycles simulated: 9000  inst.: 4461029 (ipc=495.7) sim_rate=278814 (inst/sec) elapsed = 0:0:00:16 / Tue Jan 29 23:09:50 2019
GPGPU-Sim PTX: 4700000 instructions simulated : ctaid=(63,0,0) tid=(255,0,0)
GPGPU-Sim PTX: 4800000 instructions simulated : ctaid=(52,0,0) tid=(31,0,0)
GPGPU-Sim PTX: 4900000 instructions simulated : ctaid=(79,0,0) tid=(207,0,0)
GPGPU-Sim PTX: 5000000 instructions simulated : ctaid=(49,0,0) tid=(331,0,0)
GPGPU-Sim uArch: cycles simulated: 9500  inst.: 4842821 (ipc=509.8) sim_rate=284871 (inst/sec) elapsed = 0:0:00:17 / Tue Jan 29 23:09:51 2019
GPGPU-Sim PTX: 5100000 instructions simulated : ctaid=(63,0,0) tid=(19,0,0)
GPGPU-Sim PTX: 5200000 instructions simulated : ctaid=(64,0,0) tid=(241,0,0)
GPGPU-Sim PTX: 5300000 instructions simulated : ctaid=(68,0,0) tid=(140,0,0)
GPGPU-Sim PTX: 5400000 instructions simulated : ctaid=(59,0,0) tid=(366,0,0)
GPGPU-Sim uArch: cycles simulated: 10000  inst.: 5228399 (ipc=522.8) sim_rate=290466 (inst/sec) elapsed = 0:0:00:18 / Tue Jan 29 23:09:52 2019
GPGPU-Sim PTX: 5500000 instructions simulated : ctaid=(70,0,0) tid=(71,0,0)
GPGPU-Sim uArch: Shader 3 finished CTA #0 (10128,0), 2 CTAs running
GPGPU-Sim uArch: core:  3, cta: 0 initialized @(10129,0)
GPGPU-Sim PTX: 5600000 instructions simulated : ctaid=(58,0,0) tid=(460,0,0)
GPGPU-Sim uArch: Shader 4 finished CTA #0 (10226,0), 2 CTAs running
GPGPU-Sim uArch: core:  4, cta: 0 initialized @(10227,0)
GPGPU-Sim PTX: 5700000 instructions simulated : ctaid=(88,0,0) tid=(15,0,0)
GPGPU-Sim PTX: 5800000 instructions simulated : ctaid=(66,0,0) tid=(389,0,0)
GPGPU-Sim uArch: Shader 1 finished CTA #0 (10482,0), 2 CTAs running
GPGPU-Sim uArch: core:  1, cta: 0 initialized @(10483,0)
GPGPU-Sim uArch: cycles simulated: 10500  inst.: 5605107 (ipc=533.8) sim_rate=295005 (inst/sec) elapsed = 0:0:00:19 / Tue Jan 29 23:09:53 2019
GPGPU-Sim uArch: Shader 8 finished CTA #0 (10540,0), 2 CTAs running
GPGPU-Sim uArch: core:  8, cta: 0 initialized @(10541,0)
GPGPU-Sim PTX: 5900000 instructions simulated : ctaid=(81,0,0) tid=(439,0,0)
GPGPU-Sim PTX: 6000000 instructions simulated : ctaid=(73,0,0) tid=(242,0,0)
GPGPU-Sim uArch: Shader 10 finished CTA #0 (10702,0), 2 CTAs running
GPGPU-Sim uArch: core: 10, cta: 0 initialized @(10703,0)
GPGPU-Sim PTX: 6100000 instructions simulated : ctaid=(79,0,0) tid=(12,0,0)
GPGPU-Sim uArch: Shader 3 finished CTA #1 (10814,0), 2 CTAs running
GPGPU-Sim uArch: core:  3, cta: 1 initialized @(10815,0)
GPGPU-Sim uArch: Shader 6 finished CTA #0 (10884,0), 2 CTAs running
GPGPU-Sim uArch: core:  6, cta: 0 initialized @(10885,0)
GPGPU-Sim uArch: Shader 14 finished CTA #0 (10903,0), 2 CTAs running
GPGPU-Sim uArch: core: 14, cta: 0 initialized @(10904,0)
GPGPU-Sim PTX: 6200000 instructions simulated : ctaid=(68,0,0) tid=(369,0,0)
GPGPU-Sim uArch: cycles simulated: 11000  inst.: 5986500 (ipc=544.2) sim_rate=299325 (inst/sec) elapsed = 0:0:00:20 / Tue Jan 29 23:09:54 2019
GPGPU-Sim PTX: 6300000 instructions simulated : ctaid=(80,0,0) tid=(253,0,0)
GPGPU-Sim uArch: Shader 1 finished CTA #1 (11192,0), 2 CTAs running
GPGPU-Sim uArch: core:  1, cta: 1 initialized @(11193,0)
GPGPU-Sim PTX: 6400000 instructions simulated : ctaid=(84,0,0) tid=(141,0,0)
GPGPU-Sim uArch: Shader 4 finished CTA #1 (11209,0), 2 CTAs running
GPGPU-Sim uArch: core:  4, cta: 1 initialized @(11210,0)
GPGPU-Sim uArch: Shader 11 finished CTA #0 (11285,0), 2 CTAs running
GPGPU-Sim uArch: core: 11, cta: 0 initialized @(11286,0)
GPGPU-Sim uArch: Shader 7 finished CTA #0 (11314,0), 2 CTAs running
GPGPU-Sim uArch: core:  7, cta: 0 initialized @(11315,0)
GPGPU-Sim PTX: 6500000 instructions simulated : ctaid=(101,0,0) tid=(312,0,0)
GPGPU-Sim uArch: Shader 10 finished CTA #1 (11345,0), 2 CTAs running
GPGPU-Sim uArch: core: 10, cta: 1 initialized @(11346,0)
GPGPU-Sim uArch: Shader 9 finished CTA #0 (11394,0), 2 CTAs running
GPGPU-Sim uArch: core:  9, cta: 0 initialized @(11395,0)
GPGPU-Sim uArch: Shader 7 finished CTA #1 (11399,0), 2 CTAs running
GPGPU-Sim uArch: core:  7, cta: 1 initialized @(11400,0)
GPGPU-Sim uArch: Shader 0 finished CTA #0 (11432,0), 2 CTAs running
GPGPU-Sim uArch: core:  0, cta: 0 initialized @(11433,0)
GPGPU-Sim uArch: Shader 2 finished CTA #0 (11435,0), 2 CTAs running
GPGPU-Sim uArch: core:  2, cta: 0 initialized @(11436,0)
GPGPU-Sim uArch: Shader 8 finished CTA #1 (11478,0), 2 CTAs running
GPGPU-Sim uArch: core:  8, cta: 1 initialized @(11479,0)
GPGPU-Sim PTX: 6600000 instructions simulated : ctaid=(80,0,0) tid=(7,0,0)
GPGPU-Sim uArch: Shader 13 finished CTA #0 (11487,0), 2 CTAs running
GPGPU-Sim uArch: core: 13, cta: 0 initialized @(11488,0)
GPGPU-Sim uArch: cycles simulated: 11500  inst.: 6326097 (ipc=550.1) sim_rate=287549 (inst/sec) elapsed = 0:0:00:22 / Tue Jan 29 23:09:56 2019
GPGPU-Sim uArch: Shader 12 finished CTA #0 (11506,0), 2 CTAs running
GPGPU-Sim uArch: core: 12, cta: 0 initialized @(11507,0)
GPGPU-Sim uArch: Shader 5 finished CTA #0 (11515,0), 2 CTAs running
GPGPU-Sim uArch: core:  5, cta: 0 initialized @(11516,0)
GPGPU-Sim PTX: 6700000 instructions simulated : ctaid=(91,0,0) tid=(112,0,0)
GPGPU-Sim uArch: Shader 6 finished CTA #1 (11638,0), 2 CTAs running
GPGPU-Sim uArch: core:  6, cta: 1 initialized @(11639,0)
GPGPU-Sim uArch: Shader 14 finished CTA #1 (11695,0), 2 CTAs running
GPGPU-Sim uArch: core: 14, cta: 1 initialized @(11696,0)
GPGPU-Sim PTX: 6800000 instructions simulated : ctaid=(109,0,0) tid=(456,0,0)
GPGPU-Sim uArch: Shader 9 finished CTA #1 (11752,0), 2 CTAs running
GPGPU-Sim uArch: core:  9, cta: 1 initialized @(11753,0)
GPGPU-Sim uArch: Shader 11 finished CTA #1 (11822,0), 2 CTAs running
GPGPU-Sim uArch: core: 11, cta: 1 initialized @(11823,0)
GPGPU-Sim uArch: Shader 0 finished CTA #1 (11853,0), 2 CTAs running
GPGPU-Sim uArch: core:  0, cta: 1 initialized @(11854,0)
GPGPU-Sim uArch: Shader 2 finished CTA #1 (11863,0), 2 CTAs running
GPGPU-Sim uArch: core:  2, cta: 1 initialized @(11864,0)
GPGPU-Sim PTX: 6900000 instructions simulated : ctaid=(97,0,0) tid=(294,0,0)
GPGPU-Sim uArch: Shader 12 finished CTA #1 (11893,0), 2 CTAs running
GPGPU-Sim uArch: core: 12, cta: 1 initialized @(11894,0)
GPGPU-Sim uArch: Shader 13 finished CTA #1 (11907,0), 2 CTAs running
GPGPU-Sim uArch: core: 13, cta: 1 initialized @(11908,0)
GPGPU-Sim uArch: Shader 5 finished CTA #1 (11911,0), 2 CTAs running
GPGPU-Sim uArch: core:  5, cta: 1 initialized @(11912,0)
GPGPU-Sim uArch: Shader 3 finished CTA #2 (11961,0), 2 CTAs running
GPGPU-Sim uArch: core:  3, cta: 2 initialized @(11962,0)
GPGPU-Sim uArch: Shader 4 finished CTA #2 (11963,0), 2 CTAs running
GPGPU-Sim uArch: core:  4, cta: 2 initialized @(11964,0)
GPGPU-Sim uArch: cycles simulated: 12000  inst.: 6670803 (ipc=555.9) sim_rate=290034 (inst/sec) elapsed = 0:0:00:23 / Tue Jan 29 23:09:57 2019
GPGPU-Sim PTX: 7000000 instructions simulated : ctaid=(101,0,0) tid=(163,0,0)
GPGPU-Sim PTX: 7100000 instructions simulated : ctaid=(108,0,0) tid=(212,0,0)
GPGPU-Sim uArch: Shader 8 finished CTA #2 (12193,0), 2 CTAs running
GPGPU-Sim uArch: core:  8, cta: 2 initialized @(12194,0)
GPGPU-Sim uArch: Shader 10 finished CTA #2 (12239,0), 2 CTAs running
GPGPU-Sim uArch: core: 10, cta: 2 initialized @(12240,0)
GPGPU-Sim uArch: Shader 12 finished CTA #2 (12352,0), 2 CTAs running
GPGPU-Sim uArch: core: 12, cta: 2 initialized @(12353,0)
GPGPU-Sim PTX: 7200000 instructions simulated : ctaid=(95,0,0) tid=(335,0,0)
GPGPU-Sim uArch: Shader 1 finished CTA #2 (12443,0), 2 CTAs running
GPGPU-Sim uArch: core:  1, cta: 2 initialized @(12444,0)
GPGPU-Sim uArch: Shader 2 finished CTA #2 (12487,0), 2 CTAs running
GPGPU-Sim uArch: core:  2, cta: 2 initialized @(12488,0)
GPGPU-Sim uArch: cycles simulated: 12500  inst.: 6941994 (ipc=555.4) sim_rate=289249 (inst/sec) elapsed = 0:0:00:24 / Tue Jan 29 23:09:58 2019
GPGPU-Sim PTX: 7300000 instructions simulated : ctaid=(103,0,0) tid=(79,0,0)
GPGPU-Sim uArch: Shader 13 finished CTA #2 (12639,0), 2 CTAs running
GPGPU-Sim uArch: core: 13, cta: 2 initialized @(12640,0)
GPGPU-Sim uArch: Shader 5 finished CTA #2 (12673,0), 2 CTAs running
GPGPU-Sim uArch: core:  5, cta: 2 initialized @(12674,0)
GPGPU-Sim PTX: 7400000 instructions simulated : ctaid=(98,0,0) tid=(263,0,0)
GPGPU-Sim uArch: Shader 0 finished CTA #2 (12894,0), 2 CTAs running
GPGPU-Sim uArch: core:  0, cta: 2 initialized @(12895,0)
GPGPU-Sim uArch: Shader 6 finished CTA #2 (12896,0), 2 CTAs running
GPGPU-Sim uArch: core:  6, cta: 2 initialized @(12897,0)
GPGPU-Sim uArch: Shader 7 finished CTA #2 (12898,0), 2 CTAs running
GPGPU-Sim uArch: core:  7, cta: 2 initialized @(12899,0)
GPGPU-Sim uArch: Shader 11 finished CTA #2 (12902,0), 2 CTAs running
GPGPU-Sim uArch: core: 11, cta: 2 initialized @(12903,0)
GPGPU-Sim PTX: 7500000 instructions simulated : ctaid=(129,0,0) tid=(167,0,0)
GPGPU-Sim uArch: Shader 14 finished CTA #2 (12908,0), 2 CTAs running
GPGPU-Sim uArch: core: 14, cta: 2 initialized @(12909,0)
GPGPU-Sim uArch: Shader 9 finished CTA #2 (12914,0), 2 CTAs running
GPGPU-Sim uArch: core:  9, cta: 2 initialized @(12915,0)
GPGPU-Sim uArch: cycles simulated: 13000  inst.: 7235378 (ipc=556.6) sim_rate=289415 (inst/sec) elapsed = 0:0:00:25 / Tue Jan 29 23:09:59 2019
GPGPU-Sim PTX: 7600000 instructions simulated : ctaid=(100,0,0) tid=(251,0,0)
GPGPU-Sim PTX: 7700000 instructions simulated : ctaid=(116,0,0) tid=(261,0,0)
GPGPU-Sim PTX: 7800000 instructions simulated : ctaid=(110,0,0) tid=(313,0,0)
GPGPU-Sim PTX: 7900000 instructions simulated : ctaid=(96,0,0) tid=(418,0,0)
GPGPU-Sim uArch: cycles simulated: 13500  inst.: 7629389 (ipc=565.1) sim_rate=293438 (inst/sec) elapsed = 0:0:00:26 / Tue Jan 29 23:10:00 2019
GPGPU-Sim PTX: 8000000 instructions simulated : ctaid=(126,0,0) tid=(63,0,0)
GPGPU-Sim PTX: 8100000 instructions simulated : ctaid=(111,0,0) tid=(71,0,0)
GPGPU-Sim PTX: 8200000 instructions simulated : ctaid=(120,0,0) tid=(504,0,0)
GPGPU-Sim uArch: Shader 3 finished CTA #0 (13804,0), 2 CTAs running
GPGPU-Sim uArch: core:  3, cta: 0 initialized @(13805,0)
GPGPU-Sim uArch: Shader 4 finished CTA #0 (13845,0), 2 CTAs running
GPGPU-Sim uArch: core:  4, cta: 0 initialized @(13846,0)
GPGPU-Sim PTX: 8300000 instructions simulated : ctaid=(121,0,0) tid=(391,0,0)
GPGPU-Sim PTX: 8400000 instructions simulated : ctaid=(100,0,0) tid=(207,0,0)
GPGPU-Sim uArch: cycles simulated: 14000  inst.: 8021177 (ipc=572.9) sim_rate=297080 (inst/sec) elapsed = 0:0:00:27 / Tue Jan 29 23:10:01 2019
GPGPU-Sim PTX: 8500000 instructions simulated : ctaid=(107,0,0) tid=(239,0,0)
GPGPU-Sim uArch: Shader 1 finished CTA #0 (14122,0), 2 CTAs running
GPGPU-Sim uArch: core:  1, cta: 0 initialized @(14123,0)
GPGPU-Sim PTX: 8600000 instructions simulated : ctaid=(99,0,0) tid=(370,0,0)
GPGPU-Sim PTX: 8700000 instructions simulated : ctaid=(118,0,0) tid=(417,0,0)
GPGPU-Sim uArch: cycles simulated: 14500  inst.: 8398892 (ipc=579.2) sim_rate=299960 (inst/sec) elapsed = 0:0:00:28 / Tue Jan 29 23:10:02 2019
GPGPU-Sim PTX: 8800000 instructions simulated : ctaid=(107,0,0) tid=(402,0,0)
GPGPU-Sim PTX: 8900000 instructions simulated : ctaid=(101,0,0) tid=(42,0,0)
GPGPU-Sim uArch: Shader 6 finished CTA #0 (14686,0), 2 CTAs running
GPGPU-Sim uArch: core:  6, cta: 0 initialized @(14687,0)
GPGPU-Sim PTX: 9000000 instructions simulated : ctaid=(129,0,0) tid=(355,0,0)
GPGPU-Sim uArch: Shader 10 finished CTA #0 (14821,0), 2 CTAs running
GPGPU-Sim uArch: core: 10, cta: 0 initialized @(14822,0)
GPGPU-Sim uArch: Shader 14 finished CTA #0 (14854,0), 2 CTAs running
GPGPU-Sim uArch: core: 14, cta: 0 initialized @(14855,0)
GPGPU-Sim PTX: 9100000 instructions simulated : ctaid=(113,0,0) tid=(374,0,0)
GPGPU-Sim uArch: Shader 3 finished CTA #1 (14968,0), 2 CTAs running
GPGPU-Sim uArch: core:  3, cta: 1 initialized @(14969,0)
GPGPU-Sim uArch: Shader 8 finished CTA #0 (14975,0), 2 CTAs running
GPGPU-Sim uArch: core:  8, cta: 0 initialized @(14976,0)
GPGPU-Sim uArch: cycles simulated: 15000  inst.: 8781470 (ipc=585.4) sim_rate=302809 (inst/sec) elapsed = 0:0:00:29 / Tue Jan 29 23:10:03 2019
GPGPU-Sim PTX: 9200000 instructions simulated : ctaid=(106,0,0) tid=(378,0,0)
GPGPU-Sim PTX: 9300000 instructions simulated : ctaid=(135,0,0) tid=(13,0,0)
GPGPU-Sim uArch: Shader 12 finished CTA #0 (15233,0), 2 CTAs running
GPGPU-Sim uArch: core: 12, cta: 0 initialized @(15234,0)
GPGPU-Sim PTX: 9400000 instructions simulated : ctaid=(142,0,0) tid=(179,0,0)
GPGPU-Sim uArch: Shader 2 finished CTA #0 (15274,0), 2 CTAs running
GPGPU-Sim uArch: core:  2, cta: 0 initialized @(15275,0)
GPGPU-Sim PTX: 9500000 instructions simulated : ctaid=(135,0,0) tid=(63,0,0)
GPGPU-Sim uArch: cycles simulated: 15500  inst.: 9159828 (ipc=591.0) sim_rate=305327 (inst/sec) elapsed = 0:0:00:30 / Tue Jan 29 23:10:04 2019
GPGPU-Sim PTX: 9600000 instructions simulated : ctaid=(134,0,0) tid=(150,0,0)
GPGPU-Sim uArch: Shader 13 finished CTA #0 (15532,0), 2 CTAs running
GPGPU-Sim uArch: core: 13, cta: 0 initialized @(15533,0)
GPGPU-Sim uArch: Shader 1 finished CTA #1 (15555,0), 2 CTAs running
GPGPU-Sim uArch: core:  1, cta: 1 initialized @(15556,0)
GPGPU-Sim uArch: Shader 4 finished CTA #1 (15600,0), 2 CTAs running
GPGPU-Sim uArch: core:  4, cta: 1 initialized @(15601,0)
GPGPU-Sim uArch: Shader 9 finished CTA #0 (15625,0), 2 CTAs running
GPGPU-Sim uArch: core:  9, cta: 0 initialized @(15626,0)
GPGPU-Sim uArch: Shader 5 finished CTA #0 (15631,0), 2 CTAs running
GPGPU-Sim uArch: core:  5, cta: 0 initialized @(15632,0)
GPGPU-Sim PTX: 9700000 instructions simulated : ctaid=(121,0,0) tid=(423,0,0)
GPGPU-Sim uArch: Shader 10 finished CTA #1 (15773,0), 2 CTAs running
GPGPU-Sim uArch: core: 10, cta: 1 initialized @(15774,0)
GPGPU-Sim PTX: 9800000 instructions simulated : ctaid=(122,0,0) tid=(301,0,0)
GPGPU-Sim uArch: Shader 7 finished CTA #0 (15835,0), 2 CTAs running
GPGPU-Sim uArch: core:  7, cta: 0 initialized @(15836,0)
GPGPU-Sim uArch: Shader 8 finished CTA #1 (15837,0), 2 CTAs running
GPGPU-Sim uArch: core:  8, cta: 1 initialized @(15838,0)
GPGPU-Sim uArch: Shader 0 finished CTA #0 (15853,0), 2 CTAs running
GPGPU-Sim uArch: core:  0, cta: 0 initialized @(15854,0)
GPGPU-Sim uArch: Shader 11 finished CTA #0 (15880,0), 2 CTAs running
GPGPU-Sim uArch: core: 11, cta: 0 initialized @(15881,0)
GPGPU-Sim PTX: 9900000 instructions simulated : ctaid=(111,0,0) tid=(199,0,0)
GPGPU-Sim uArch: cycles simulated: 16000  inst.: 9543331 (ipc=596.5) sim_rate=298229 (inst/sec) elapsed = 0:0:00:32 / Tue Jan 29 23:10:06 2019
GPGPU-Sim PTX: 10000000 instructions simulated : ctaid=(120,0,0) tid=(494,0,0)
GPGPU-Sim uArch: Shader 7 finished CTA #1 (16064,0), 2 CTAs running
GPGPU-Sim uArch: core:  7, cta: 1 initialized @(16065,0)
GPGPU-Sim uArch: Shader 14 finished CTA #1 (16082,0), 2 CTAs running
GPGPU-Sim uArch: core: 14, cta: 1 initialized @(16083,0)
GPGPU-Sim uArch: Shader 12 finished CTA #1 (16156,0), 2 CTAs running
GPGPU-Sim uArch: core: 12, cta: 1 initialized @(16157,0)
GPGPU-Sim PTX: 10100000 instructions simulated : ctaid=(138,0,0) tid=(209,0,0)
GPGPU-Sim uArch: Shader 9 finished CTA #1 (16193,0), 2 CTAs running
GPGPU-Sim uArch: core:  9, cta: 1 initialized @(16194,0)
GPGPU-Sim uArch: Shader 2 finished CTA #1 (16233,0), 2 CTAs running
GPGPU-Sim uArch: core:  2, cta: 1 initialized @(16234,0)
GPGPU-Sim uArch: Shader 4 finished CTA #2 (16291,0), 2 CTAs running
GPGPU-Sim uArch: core:  4, cta: 2 initialized @(16292,0)
GPGPU-Sim PTX: 10200000 instructions simulated : ctaid=(114,0,0) tid=(360,0,0)
GPGPU-Sim uArch: Shader 13 finished CTA #1 (16371,0), 2 CTAs running
GPGPU-Sim uArch: core: 13, cta: 1 initialized @(16372,0)
GPGPU-Sim uArch: Shader 5 finished CTA #1 (16375,0), 2 CTAs running
GPGPU-Sim uArch: core:  5, cta: 1 initialized @(16376,0)
GPGPU-Sim uArch: Shader 6 finished CTA #1 (16396,0), 2 CTAs running
GPGPU-Sim uArch: core:  6, cta: 1 initialized @(16397,0)
GPGPU-Sim uArch: Shader 3 finished CTA #2 (16429,0), 2 CTAs running
GPGPU-Sim uArch: core:  3, cta: 2 initialized @(16430,0)
GPGPU-Sim PTX: 10300000 instructions simulated : ctaid=(158,0,0) tid=(49,0,0)
GPGPU-Sim uArch: cycles simulated: 16500  inst.: 9904794 (ipc=600.3) sim_rate=300145 (inst/sec) elapsed = 0:0:00:33 / Tue Jan 29 23:10:07 2019
GPGPU-Sim uArch: Shader 0 finished CTA #1 (16519,0), 2 CTAs running
GPGPU-Sim uArch: core:  0, cta: 1 initialized @(16520,0)
GPGPU-Sim PTX: 10400000 instructions simulated : ctaid=(163,0,0) tid=(301,0,0)
GPGPU-Sim uArch: Shader 11 finished CTA #1 (16583,0), 2 CTAs running
GPGPU-Sim uArch: core: 11, cta: 1 initialized @(16584,0)
GPGPU-Sim uArch: Shader 8 finished CTA #2 (16614,0), 2 CTAs running
GPGPU-Sim uArch: core:  8, cta: 2 initialized @(16615,0)
GPGPU-Sim PTX: 10500000 instructions simulated : ctaid=(126,0,0) tid=(433,0,0)
GPGPU-Sim uArch: Shader 1 finished CTA #2 (16733,0), 2 CTAs running
GPGPU-Sim uArch: core:  1, cta: 2 initialized @(16734,0)
GPGPU-Sim uArch: Shader 12 finished CTA #2 (16739,0), 2 CTAs running
GPGPU-Sim uArch: core: 12, cta: 2 initialized @(16740,0)
GPGPU-Sim uArch: Shader 10 finished CTA #2 (16779,0), 2 CTAs running
GPGPU-Sim uArch: core: 10, cta: 2 initialized @(16780,0)
GPGPU-Sim PTX: 10600000 instructions simulated : ctaid=(127,0,0) tid=(30,0,0)
GPGPU-Sim PTX: 10700000 instructions simulated : ctaid=(144,0,0) tid=(43,0,0)
GPGPU-Sim uArch: Shader 2 finished CTA #2 (16956,0), 2 CTAs running
GPGPU-Sim uArch: core:  2, cta: 2 initialized @(16957,0)
GPGPU-Sim uArch: cycles simulated: 17000  inst.: 10279891 (ipc=604.7) sim_rate=302349 (inst/sec) elapsed = 0:0:00:34 / Tue Jan 29 23:10:08 2019
GPGPU-Sim PTX: 10800000 instructions simulated : ctaid=(162,0,0) tid=(311,0,0)
GPGPU-Sim uArch: Shader 13 finished CTA #2 (17127,0), 2 CTAs running
GPGPU-Sim uArch: core: 13, cta: 2 initialized @(17128,0)
GPGPU-Sim uArch: Shader 14 finished CTA #2 (17137,0), 2 CTAs running
GPGPU-Sim uArch: core: 14, cta: 2 initialized @(17138,0)
GPGPU-Sim uArch: Shader 5 finished CTA #2 (17182,0), 2 CTAs running
GPGPU-Sim uArch: core:  5, cta: 2 initialized @(17183,0)
GPGPU-Sim PTX: 10900000 instructions simulated : ctaid=(147,0,0) tid=(43,0,0)
GPGPU-Sim PTX: 11000000 instructions simulated : ctaid=(138,0,0) tid=(407,0,0)
GPGPU-Sim PTX: 11100000 instructions simulated : ctaid=(174,0,0) tid=(318,0,0)
GPGPU-Sim uArch: Shader 6 finished CTA #2 (17496,0), 2 CTAs running
GPGPU-Sim uArch: core:  6, cta: 2 initialized @(17497,0)
GPGPU-Sim uArch: cycles simulated: 17500  inst.: 10643813 (ipc=608.2) sim_rate=304108 (inst/sec) elapsed = 0:0:00:35 / Tue Jan 29 23:10:09 2019
GPGPU-Sim uArch: Shader 7 finished CTA #2 (17505,0), 2 CTAs running
GPGPU-Sim uArch: core:  7, cta: 2 initialized @(17506,0)
GPGPU-Sim uArch: Shader 9 finished CTA #2 (17515,0), 2 CTAs running
GPGPU-Sim uArch: core:  9, cta: 2 initialized @(17516,0)
GPGPU-Sim uArch: Shader 11 finished CTA #2 (17560,0), 2 CTAs running
GPGPU-Sim uArch: core: 11, cta: 2 initialized @(17561,0)
GPGPU-Sim uArch: Shader 0 finished CTA #2 (17561,0), 2 CTAs running
GPGPU-Sim uArch: core:  0, cta: 2 initialized @(17562,0)
GPGPU-Sim PTX: 11200000 instructions simulated : ctaid=(179,0,0) tid=(383,0,0)
GPGPU-Sim PTX: 11300000 instructions simulated : ctaid=(150,0,0) tid=(163,0,0)
GPGPU-Sim PTX: 11400000 instructions simulated : ctaid=(141,0,0) tid=(310,0,0)
GPGPU-Sim uArch: Shader 4 finished CTA #0 (17841,0), 2 CTAs running
GPGPU-Sim uArch: core:  4, cta: 0 initialized @(17842,0)
GPGPU-Sim uArch: Shader 3 finished CTA #0 (17843,0), 2 CTAs running
GPGPU-Sim uArch: core:  3, cta: 0 initialized @(17844,0)
GPGPU-Sim PTX: 11500000 instructions simulated : ctaid=(147,0,0) tid=(315,0,0)
GPGPU-Sim uArch: cycles simulated: 18000  inst.: 11028502 (ipc=612.7) sim_rate=306347 (inst/sec) elapsed = 0:0:00:36 / Tue Jan 29 23:10:10 2019
GPGPU-Sim PTX: 11600000 instructions simulated : ctaid=(172,0,0) tid=(309,0,0)
GPGPU-Sim uArch: Shader 1 finished CTA #0 (18181,0), 2 CTAs running
GPGPU-Sim uArch: core:  1, cta: 0 initialized @(18182,0)
GPGPU-Sim PTX: 11700000 instructions simulated : ctaid=(147,0,0) tid=(93,0,0)
GPGPU-Sim PTX: 11800000 instructions simulated : ctaid=(159,0,0) tid=(72,0,0)
GPGPU-Sim PTX: 11900000 instructions simulated : ctaid=(170,0,0) tid=(163,0,0)
GPGPU-Sim uArch: cycles simulated: 18500  inst.: 11411321 (ipc=616.8) sim_rate=308414 (inst/sec) elapsed = 0:0:00:37 / Tue Jan 29 23:10:11 2019
GPGPU-Sim PTX: 12000000 instructions simulated : ctaid=(144,0,0) tid=(191,0,0)
GPGPU-Sim uArch: Shader 10 finished CTA #0 (18630,0), 2 CTAs running
GPGPU-Sim uArch: core: 10, cta: 0 initialized @(18631,0)
GPGPU-Sim PTX: 12100000 instructions simulated : ctaid=(163,0,0) tid=(25,0,0)
GPGPU-Sim uArch: Shader 6 finished CTA #0 (18754,0), 2 CTAs running
GPGPU-Sim uArch: core:  6, cta: 0 initialized @(18755,0)
GPGPU-Sim uArch: Shader 8 finished CTA #0 (18787,0), 2 CTAs running
GPGPU-Sim uArch: core:  8, cta: 0 initialized @(18788,0)
GPGPU-Sim PTX: 12200000 instructions simulated : ctaid=(162,0,0) tid=(59,0,0)
GPGPU-Sim uArch: Shader 12 finished CTA #0 (18844,0), 2 CTAs running
GPGPU-Sim uArch: core: 12, cta: 0 initialized @(18845,0)
GPGPU-Sim uArch: Shader 14 finished CTA #0 (18867,0), 2 CTAs running
GPGPU-Sim uArch: core: 14, cta: 0 initialized @(18868,0)
GPGPU-Sim PTX: 12300000 instructions simulated : ctaid=(163,0,0) tid=(431,0,0)
GPGPU-Sim uArch: cycles simulated: 19000  inst.: 11794391 (ipc=620.8) sim_rate=302420 (inst/sec) elapsed = 0:0:00:39 / Tue Jan 29 23:10:13 2019
GPGPU-Sim uArch: Shader 3 finished CTA #1 (19073,0), 2 CTAs running
GPGPU-Sim uArch: core:  3, cta: 1 initialized @(19074,0)
GPGPU-Sim PTX: 12400000 instructions simulated : ctaid=(154,0,0) tid=(293,0,0)
GPGPU-Sim uArch: Shader 2 finished CTA #0 (19144,0), 2 CTAs running
GPGPU-Sim uArch: core:  2, cta: 0 initialized @(19145,0)
GPGPU-Sim PTX: 12500000 instructions simulated : ctaid=(187,0,0) tid=(311,0,0)
GPGPU-Sim PTX: 12600000 instructions simulated : ctaid=(152,0,0) tid=(12,0,0)
GPGPU-Sim uArch: Shader 7 finished CTA #0 (19343,0), 2 CTAs running
GPGPU-Sim uArch: core:  7, cta: 0 initialized @(19344,0)
GPGPU-Sim PTX: 12700000 instructions simulated : ctaid=(167,0,0) tid=(74,0,0)
GPGPU-Sim uArch: Shader 9 finished CTA #0 (19465,0), 2 CTAs running
GPGPU-Sim uArch: core:  9, cta: 0 initialized @(19466,0)
GPGPU-Sim uArch: cycles simulated: 19500  inst.: 12177598 (ipc=624.5) sim_rate=304439 (inst/sec) elapsed = 0:0:00:40 / Tue Jan 29 23:10:14 2019
GPGPU-Sim uArch: Shader 11 finished CTA #0 (19503,0), 2 CTAs running
GPGPU-Sim uArch: core: 11, cta: 0 initialized @(19504,0)
GPGPU-Sim uArch: Shader 13 finished CTA #0 (19547,0), 2 CTAs running
GPGPU-Sim uArch: core: 13, cta: 0 initialized @(19548,0)
GPGPU-Sim uArch: Shader 4 finished CTA #1 (19583,0), 2 CTAs running
GPGPU-Sim uArch: core:  4, cta: 1 initialized @(19584,0)
GPGPU-Sim PTX: 12800000 instructions simulated : ctaid=(160,0,0) tid=(108,0,0)
GPGPU-Sim uArch: Shader 1 finished CTA #1 (19693,0), 2 CTAs running
GPGPU-Sim uArch: core:  1, cta: 1 initialized @(19694,0)
GPGPU-Sim PTX: 12900000 instructions simulated : ctaid=(161,0,0) tid=(9,0,0)
GPGPU-Sim uArch: Shader 5 finished CTA #0 (19770,0), 2 CTAs running
GPGPU-Sim uArch: core:  5, cta: 0 initialized @(19771,0)
GPGPU-Sim uArch: Shader 0 finished CTA #0 (19817,0), 2 CTAs running
GPGPU-Sim uArch: core:  0, cta: 0 initialized @(19818,0)
GPGPU-Sim PTX: 13000000 instructions simulated : ctaid=(174,0,0) tid=(351,0,0)
GPGPU-Sim uArch: Shader 8 finished CTA #1 (19860,0), 2 CTAs running
GPGPU-Sim uArch: core:  8, cta: 1 initialized @(19861,0)
GPGPU-Sim uArch: Shader 10 finished CTA #1 (19946,0), 2 CTAs running
GPGPU-Sim uArch: core: 10, cta: 1 initialized @(19947,0)
GPGPU-Sim PTX: 13100000 instructions simulated : ctaid=(198,0,0) tid=(139,0,0)
GPGPU-Sim uArch: cycles simulated: 20000  inst.: 12557525 (ipc=627.9) sim_rate=306281 (inst/sec) elapsed = 0:0:00:41 / Tue Jan 29 23:10:15 2019
GPGPU-Sim PTX: 13200000 instructions simulated : ctaid=(179,0,0) tid=(426,0,0)
GPGPU-Sim uArch: Shader 14 finished CTA #1 (20195,0), 2 CTAs running
GPGPU-Sim uArch: core: 14, cta: 1 initialized @(20196,0)
GPGPU-Sim PTX: 13300000 instructions simulated : ctaid=(173,0,0) tid=(279,0,0)
GPGPU-Sim uArch: Shader 12 finished CTA #1 (20256,0), 2 CTAs running
GPGPU-Sim uArch: core: 12, cta: 1 initialized @(20257,0)
GPGPU-Sim uArch: Shader 2 finished CTA #1 (20268,0), 2 CTAs running
GPGPU-Sim uArch: core:  2, cta: 1 initialized @(20269,0)
GPGPU-Sim PTX: 13400000 instructions simulated : ctaid=(186,0,0) tid=(477,0,0)
GPGPU-Sim uArch: Shader 5 finished CTA #1 (20483,0), 2 CTAs running
GPGPU-Sim uArch: core:  5, cta: 1 initialized @(20484,0)
GPGPU-Sim PTX: 13500000 instructions simulated : ctaid=(182,0,0) tid=(69,0,0)
GPGPU-Sim uArch: cycles simulated: 20500  inst.: 12927721 (ipc=630.6) sim_rate=307802 (inst/sec) elapsed = 0:0:00:42 / Tue Jan 29 23:10:16 2019
GPGPU-Sim uArch: Shader 13 finished CTA #1 (20611,0), 2 CTAs running
GPGPU-Sim uArch: core: 13, cta: 1 initialized @(20612,0)
GPGPU-Sim uArch: Shader 6 finished CTA #1 (20615,0), 2 CTAs running
GPGPU-Sim uArch: core:  6, cta: 1 initialized @(20616,0)
GPGPU-Sim PTX: 13600000 instructions simulated : ctaid=(171,0,0) tid=(435,0,0)
GPGPU-Sim uArch: Shader 9 finished CTA #1 (20660,0), 2 CTAs running
GPGPU-Sim uArch: core:  9, cta: 1 initialized @(20661,0)
GPGPU-Sim uArch: Shader 7 finished CTA #1 (20697,0), 2 CTAs running
GPGPU-Sim uArch: core:  7, cta: 1 initialized @(20698,0)
GPGPU-Sim PTX: 13700000 instructions simulated : ctaid=(167,0,0) tid=(472,0,0)
GPGPU-Sim uArch: Shader 0 finished CTA #1 (20771,0), 2 CTAs running
GPGPU-Sim uArch: core:  0, cta: 1 initialized @(20772,0)
GPGPU-Sim uArch: Shader 3 finished CTA #2 (20837,0), 2 CTAs running
GPGPU-Sim uArch: core:  3, cta: 2 initialized @(20838,0)
GPGPU-Sim uArch: Shader 4 finished CTA #2 (20844,0), 2 CTAs running
GPGPU-Sim uArch: core:  4, cta: 2 initialized @(20845,0)
GPGPU-Sim PTX: 13800000 instructions simulated : ctaid=(189,0,0) tid=(13,0,0)
GPGPU-Sim uArch: Shader 11 finished CTA #1 (20872,0), 2 CTAs running
GPGPU-Sim uArch: core: 11, cta: 1 initialized @(20873,0)
GPGPU-Sim uArch: Shader 10 finished CTA #2 (20919,0), 2 CTAs running
GPGPU-Sim uArch: core: 10, cta: 2 initialized @(20920,0)
GPGPU-Sim PTX: 13900000 instructions simulated : ctaid=(182,0,0) tid=(482,0,0)
GPGPU-Sim uArch: cycles simulated: 21000  inst.: 13300927 (ipc=633.4) sim_rate=309323 (inst/sec) elapsed = 0:0:00:43 / Tue Jan 29 23:10:17 2019
GPGPU-Sim uArch: Shader 8 finished CTA #2 (21046,0), 2 CTAs running
GPGPU-Sim uArch: core:  8, cta: 2 initialized @(21047,0)
GPGPU-Sim uArch: Shader 1 finished CTA #2 (21053,0), 2 CTAs running
GPGPU-Sim uArch: core:  1, cta: 2 initialized @(21054,0)
GPGPU-Sim PTX: 14000000 instructions simulated : ctaid=(173,0,0) tid=(410,0,0)
GPGPU-Sim uArch: Shader 12 finished CTA #2 (21136,0), 2 CTAs running
GPGPU-Sim uArch: core: 12, cta: 2 initialized @(21137,0)
GPGPU-Sim uArch: Shader 2 finished CTA #2 (21215,0), 2 CTAs running
GPGPU-Sim uArch: core:  2, cta: 2 initialized @(21216,0)
GPGPU-Sim PTX: 14100000 instructions simulated : ctaid=(174,0,0) tid=(193,0,0)
GPGPU-Sim uArch: Shader 14 finished CTA #2 (21363,0), 2 CTAs running
GPGPU-Sim uArch: core: 14, cta: 2 initialized @(21364,0)
GPGPU-Sim PTX: 14200000 instructions simulated : ctaid=(205,0,0) tid=(293,0,0)
GPGPU-Sim PTX: 14300000 instructions simulated : ctaid=(209,0,0) tid=(98,0,0)
GPGPU-Sim uArch: cycles simulated: 21500  inst.: 13690345 (ipc=636.8) sim_rate=304229 (inst/sec) elapsed = 0:0:00:45 / Tue Jan 29 23:10:19 2019
GPGPU-Sim uArch: Shader 5 finished CTA #2 (21500,0), 2 CTAs running
GPGPU-Sim uArch: core:  5, cta: 2 initialized @(21501,0)
GPGPU-Sim uArch: Shader 6 finished CTA #2 (21542,0), 2 CTAs running
GPGPU-Sim uArch: core:  6, cta: 2 initialized @(21543,0)
GPGPU-Sim uArch: Shader 13 finished CTA #2 (21577,0), 2 CTAs running
GPGPU-Sim uArch: core: 13, cta: 2 initialized @(21578,0)
GPGPU-Sim PTX: 14400000 instructions simulated : ctaid=(211,0,0) tid=(151,0,0)
GPGPU-Sim uArch: Shader 9 finished CTA #2 (21632,0), 2 CTAs running
GPGPU-Sim uArch: core:  9, cta: 2 initialized @(21633,0)
GPGPU-Sim uArch: Shader 0 finished CTA #2 (21682,0), 2 CTAs running
GPGPU-Sim uArch: core:  0, cta: 2 initialized @(21683,0)
GPGPU-Sim PTX: 14500000 instructions simulated : ctaid=(204,0,0) tid=(105,0,0)
GPGPU-Sim uArch: Shader 7 finished CTA #2 (21762,0), 2 CTAs running
GPGPU-Sim uArch: core:  7, cta: 2 initialized @(21763,0)
GPGPU-Sim PTX: 14600000 instructions simulated : ctaid=(201,0,0) tid=(287,0,0)
GPGPU-Sim uArch: Shader 3 finished CTA #0 (21872,0), 2 CTAs running
GPGPU-Sim uArch: core:  3, cta: 0 initialized @(21873,0)
GPGPU-Sim PTX: 14700000 instructions simulated : ctaid=(200,0,0) tid=(206,0,0)
GPGPU-Sim uArch: Shader 11 finished CTA #2 (21982,0), 2 CTAs running
GPGPU-Sim uArch: core: 11, cta: 2 initialized @(21983,0)
GPGPU-Sim uArch: cycles simulated: 22000  inst.: 14074605 (ipc=639.8) sim_rate=305969 (inst/sec) elapsed = 0:0:00:46 / Tue Jan 29 23:10:20 2019
GPGPU-Sim uArch: Shader 4 finished CTA #0 (22092,0), 2 CTAs running
GPGPU-Sim uArch: core:  4, cta: 0 initialized @(22093,0)
GPGPU-Sim PTX: 14800000 instructions simulated : ctaid=(185,0,0) tid=(269,0,0)
GPGPU-Sim PTX: 14900000 instructions simulated : ctaid=(198,0,0) tid=(51,0,0)
GPGPU-Sim uArch: Shader 1 finished CTA #0 (22350,0), 2 CTAs running
GPGPU-Sim uArch: core:  1, cta: 0 initialized @(22351,0)
GPGPU-Sim PTX: 15000000 instructions simulated : ctaid=(211,0,0) tid=(64,0,0)
GPGPU-Sim PTX: 15100000 instructions simulated : ctaid=(208,0,0) tid=(297,0,0)
GPGPU-Sim uArch: cycles simulated: 22500  inst.: 14461374 (ipc=642.7) sim_rate=307688 (inst/sec) elapsed = 0:0:00:47 / Tue Jan 29 23:10:21 2019
GPGPU-Sim PTX: 15200000 instructions simulated : ctaid=(217,0,0) tid=(262,0,0)
GPGPU-Sim uArch: Shader 8 finished CTA #0 (22703,0), 2 CTAs running
GPGPU-Sim uArch: core:  8, cta: 0 initialized @(22704,0)
GPGPU-Sim PTX: 15300000 instructions simulated : ctaid=(187,0,0) tid=(389,0,0)
GPGPU-Sim uArch: Shader 10 finished CTA #0 (22799,0), 2 CTAs running
GPGPU-Sim uArch: core: 10, cta: 0 initialized @(22800,0)
GPGPU-Sim PTX: 15400000 instructions simulated : ctaid=(197,0,0) tid=(499,0,0)
GPGPU-Sim uArch: Shader 6 finished CTA #0 (22873,0), 2 CTAs running
GPGPU-Sim uArch: core:  6, cta: 0 initialized @(22874,0)
GPGPU-Sim uArch: Shader 12 finished CTA #0 (22926,0), 2 CTAs running
GPGPU-Sim uArch: core: 12, cta: 0 initialized @(22927,0)
GPGPU-Sim uArch: Shader 14 finished CTA #0 (22966,0), 2 CTAs running
GPGPU-Sim uArch: core: 14, cta: 0 initialized @(22967,0)
GPGPU-Sim PTX: 15500000 instructions simulated : ctaid=(200,0,0) tid=(478,0,0)
GPGPU-Sim uArch: cycles simulated: 23000  inst.: 14841569 (ipc=645.3) sim_rate=309199 (inst/sec) elapsed = 0:0:00:48 / Tue Jan 29 23:10:22 2019
GPGPU-Sim PTX: 15600000 instructions simulated : ctaid=(210,0,0) tid=(180,0,0)
GPGPU-Sim uArch: Shader 2 finished CTA #0 (23178,0), 2 CTAs running
GPGPU-Sim uArch: core:  2, cta: 0 initialized @(23179,0)
GPGPU-Sim PTX: 15700000 instructions simulated : ctaid=(197,0,0) tid=(327,0,0)
GPGPU-Sim uArch: Shader 3 finished CTA #1 (23238,0), 2 CTAs running
GPGPU-Sim uArch: core:  3, cta: 1 initialized @(23239,0)
GPGPU-Sim PTX: 15800000 instructions simulated : ctaid=(205,0,0) tid=(40,0,0)
GPGPU-Sim uArch: Shader 13 finished CTA #0 (23441,0), 2 CTAs running
GPGPU-Sim uArch: core: 13, cta: 0 initialized @(23442,0)
GPGPU-Sim PTX: 15900000 instructions simulated : ctaid=(226,0,0) tid=(473,0,0)
GPGPU-Sim uArch: cycles simulated: 23500  inst.: 15228203 (ipc=648.0) sim_rate=310779 (inst/sec) elapsed = 0:0:00:49 / Tue Jan 29 23:10:23 2019
GPGPU-Sim uArch: Shader 7 finished CTA #0 (23545,0), 2 CTAs running
GPGPU-Sim uArch: core:  7, cta: 0 initialized @(23546,0)
GPGPU-Sim uArch: Shader 9 finished CTA #0 (23553,0), 2 CTAs running
GPGPU-Sim uArch: core:  9, cta: 0 initialized @(23554,0)
GPGPU-Sim PTX: 16000000 instructions simulated : ctaid=(218,0,0) tid=(386,0,0)
GPGPU-Sim uArch: Shader 11 finished CTA #0 (23651,0), 2 CTAs running
GPGPU-Sim uArch: core: 11, cta: 0 initialized @(23652,0)
GPGPU-Sim PTX: 16100000 instructions simulated : ctaid=(228,0,0) tid=(246,0,0)
GPGPU-Sim uArch: Shader 5 finished CTA #0 (23751,0), 2 CTAs running
GPGPU-Sim uArch: core:  5, cta: 0 initialized @(23752,0)
GPGPU-Sim uArch: Shader 1 finished CTA #1 (23779,0), 2 CTAs running
GPGPU-Sim uArch: core:  1, cta: 1 initialized @(23780,0)
GPGPU-Sim uArch: Shader 4 finished CTA #1 (23800,0), 2 CTAs running
GPGPU-Sim uArch: core:  4, cta: 1 initialized @(23801,0)
GPGPU-Sim PTX: 16200000 instructions simulated : ctaid=(212,0,0) tid=(27,0,0)
GPGPU-Sim uArch: Shader 0 finished CTA #0 (23932,0), 2 CTAs running
GPGPU-Sim uArch: core:  0, cta: 0 initialized @(23933,0)
GPGPU-Sim PTX: 16300000 instructions simulated : ctaid=(221,0,0) tid=(50,0,0)
GPGPU-Sim uArch: cycles simulated: 24000  inst.: 15613993 (ipc=650.6) sim_rate=306156 (inst/sec) elapsed = 0:0:00:51 / Tue Jan 29 23:10:25 2019
GPGPU-Sim uArch: Shader 10 finished CTA #1 (24086,0), 2 CTAs running
GPGPU-Sim uArch: core: 10, cta: 1 initialized @(24087,0)
GPGPU-Sim uArch: Shader 8 finished CTA #1 (24093,0), 2 CTAs running
GPGPU-Sim uArch: core:  8, cta: 1 initialized @(24094,0)
GPGPU-Sim PTX: 16400000 instructions simulated : ctaid=(213,0,0) tid=(7,0,0)
GPGPU-Sim PTX: 16500000 instructions simulated : ctaid=(237,0,0) tid=(160,0,0)
GPGPU-Sim PTX: 16600000 instructions simulated : ctaid=(243,0,0) tid=(370,0,0)
GPGPU-Sim uArch: Shader 14 finished CTA #1 (24378,0), 2 CTAs running
GPGPU-Sim uArch: core: 14, cta: 1 initialized @(24379,0)
GPGPU-Sim uArch: Shader 12 finished CTA #1 (24379,0), 2 CTAs running
GPGPU-Sim uArch: core: 12, cta: 1 initialized @(24380,0)
GPGPU-Sim PTX: 16700000 instructions simulated : ctaid=(218,0,0) tid=(404,0,0)
GPGPU-Sim uArch: cycles simulated: 24500  inst.: 15991085 (ipc=652.7) sim_rate=307520 (inst/sec) elapsed = 0:0:00:52 / Tue Jan 29 23:10:26 2019
GPGPU-Sim uArch: Shader 6 finished CTA #1 (24541,0), 2 CTAs running
GPGPU-Sim uArch: core:  6, cta: 1 initialized @(24542,0)
GPGPU-Sim uArch: Shader 2 finished CTA #1 (24544,0), 2 CTAs running
GPGPU-Sim uArch: core:  2, cta: 1 initialized @(24545,0)
GPGPU-Sim PTX: 16800000 instructions simulated : ctaid=(224,0,0) tid=(70,0,0)
GPGPU-Sim uArch: Shader 13 finished CTA #1 (24659,0), 2 CTAs running
GPGPU-Sim uArch: core: 13, cta: 1 initialized @(24660,0)
GPGPU-Sim uArch: Shader 5 finished CTA #1 (24668,0), 2 CTAs running
GPGPU-Sim uArch: core:  5, cta: 1 initialized @(24669,0)
GPGPU-Sim PTX: 16900000 instructions simulated : ctaid=(214,0,0) tid=(167,0,0)
GPGPU-Sim uArch: Shader 9 finished CTA #1 (24758,0), 2 CTAs running
GPGPU-Sim uArch: core:  9, cta: 1 initialized @(24759,0)
GPGPU-Sim PTX: 17000000 instructions simulated : ctaid=(222,0,0) tid=(9,0,0)
GPGPU-Sim uArch: Shader 7 finished CTA #1 (24868,0), 2 CTAs running
GPGPU-Sim uArch: core:  7, cta: 1 initialized @(24869,0)
GPGPU-Sim uArch: Shader 11 finished CTA #1 (24988,0), 2 CTAs running
GPGPU-Sim uArch: core: 11, cta: 1 initialized @(24989,0)
GPGPU-Sim PTX: 17100000 instructions simulated : ctaid=(219,0,0) tid=(210,0,0)
GPGPU-Sim uArch: cycles simulated: 25000  inst.: 16372184 (ipc=654.9) sim_rate=308909 (inst/sec) elapsed = 0:0:00:53 / Tue Jan 29 23:10:27 2019
GPGPU-Sim uArch: Shader 3 finished CTA #2 (25031,0), 2 CTAs running
GPGPU-Sim uArch: core:  3, cta: 2 initialized @(25032,0)
GPGPU-Sim uArch: Shader 0 finished CTA #1 (25045,0), 2 CTAs running
GPGPU-Sim uArch: core:  0, cta: 1 initialized @(25046,0)
GPGPU-Sim uArch: Shader 4 finished CTA #2 (25056,0), 2 CTAs running
GPGPU-Sim uArch: core:  4, cta: 2 initialized @(25057,0)
GPGPU-Sim uArch: Shader 10 finished CTA #2 (25107,0), 2 CTAs running
GPGPU-Sim uArch: core: 10, cta: 2 initialized @(25108,0)
GPGPU-Sim PTX: 17200000 instructions simulated : ctaid=(218,0,0) tid=(507,0,0)
GPGPU-Sim PTX: 17300000 instructions simulated : ctaid=(239,0,0) tid=(383,0,0)
GPGPU-Sim uArch: Shader 1 finished CTA #2 (25305,0), 2 CTAs running
GPGPU-Sim uArch: core:  1, cta: 2 initialized @(25306,0)
GPGPU-Sim uArch: Shader 8 finished CTA #2 (25342,0), 2 CTAs running
GPGPU-Sim uArch: core:  8, cta: 2 initialized @(25343,0)
GPGPU-Sim uArch: Shader 12 finished CTA #2 (25364,0), 2 CTAs running
GPGPU-Sim uArch: core: 12, cta: 2 initialized @(25365,0)
GPGPU-Sim PTX: 17400000 instructions simulated : ctaid=(236,0,0) tid=(289,0,0)
GPGPU-Sim uArch: Shader 2 finished CTA #2 (25479,0), 2 CTAs running
GPGPU-Sim uArch: core:  2, cta: 2 initialized @(25480,0)
GPGPU-Sim PTX: 17500000 instructions simulated : ctaid=(234,0,0) tid=(476,0,0)
GPGPU-Sim uArch: cycles simulated: 25500  inst.: 16752160 (ipc=656.9) sim_rate=310225 (inst/sec) elapsed = 0:0:00:54 / Tue Jan 29 23:10:28 2019
GPGPU-Sim uArch: Shader 14 finished CTA #2 (25525,0), 2 CTAs running
GPGPU-Sim uArch: core: 14, cta: 2 initialized @(25526,0)
GPGPU-Sim PTX: 17600000 instructions simulated : ctaid=(262,0,0) tid=(287,0,0)
GPGPU-Sim uArch: Shader 6 finished CTA #2 (25677,0), 2 CTAs running
GPGPU-Sim uArch: core:  6, cta: 2 initialized @(25678,0)
GPGPU-Sim PTX: 17700000 instructions simulated : ctaid=(249,0,0) tid=(333,0,0)
GPGPU-Sim PTX: 17800000 instructions simulated : ctaid=(233,0,0) tid=(274,0,0)
GPGPU-Sim uArch: cycles simulated: 26000  inst.: 17123754 (ipc=658.6) sim_rate=311340 (inst/sec) elapsed = 0:0:00:55 / Tue Jan 29 23:10:29 2019
GPGPU-Sim uArch: Shader 9 finished CTA #2 (26006,0), 2 CTAs running
GPGPU-Sim uArch: core:  9, cta: 2 initialized @(26007,0)
GPGPU-Sim PTX: 17900000 instructions simulated : ctaid=(252,0,0) tid=(156,0,0)
GPGPU-Sim uArch: Shader 3 finished CTA #0 (26097,0), 2 CTAs running
GPGPU-Sim uArch: core:  3, cta: 0 initialized @(26098,0)
GPGPU-Sim uArch: Shader 13 finished CTA #2 (26129,0), 2 CTAs running
GPGPU-Sim uArch: core: 13, cta: 2 initialized @(26130,0)
GPGPU-Sim uArch: Shader 5 finished CTA #2 (26133,0), 2 CTAs running
GPGPU-Sim uArch: core:  5, cta: 2 initialized @(26134,0)
GPGPU-Sim PTX: 18000000 instructions simulated : ctaid=(256,0,0) tid=(475,0,0)
GPGPU-Sim uArch: Shader 0 finished CTA #2 (26194,0), 2 CTAs running
GPGPU-Sim uArch: core:  0, cta: 2 initialized @(26195,0)
GPGPU-Sim uArch: Shader 7 finished CTA #2 (26252,0), 2 CTAs running
GPGPU-Sim uArch: core:  7, cta: 2 initialized @(26253,0)
GPGPU-Sim PTX: 18100000 instructions simulated : ctaid=(265,0,0) tid=(331,0,0)
GPGPU-Sim uArch: Shader 11 finished CTA #2 (26301,0), 2 CTAs running
GPGPU-Sim uArch: core: 11, cta: 2 initialized @(26302,0)
GPGPU-Sim uArch: Shader 4 finished CTA #0 (26356,0), 2 CTAs running
GPGPU-Sim uArch: core:  4, cta: 0 initialized @(26357,0)
GPGPU-Sim uArch: Shader 1 finished CTA #0 (26381,0), 2 CTAs running
GPGPU-Sim uArch: core:  1, cta: 0 initialized @(26382,0)
GPGPU-Sim PTX: 18200000 instructions simulated : ctaid=(272,0,0) tid=(101,0,0)
GPGPU-Sim uArch: cycles simulated: 26500  inst.: 17495430 (ipc=660.2) sim_rate=306937 (inst/sec) elapsed = 0:0:00:57 / Tue Jan 29 23:10:31 2019
GPGPU-Sim PTX: 18300000 instructions simulated : ctaid=(235,0,0) tid=(123,0,0)
GPGPU-Sim PTX: 18400000 instructions simulated : ctaid=(251,0,0) tid=(476,0,0)
GPGPU-Sim PTX: 18500000 instructions simulated : ctaid=(251,0,0) tid=(497,0,0)
GPGPU-Sim uArch: Shader 8 finished CTA #0 (26874,0), 2 CTAs running
GPGPU-Sim uArch: core:  8, cta: 0 initialized @(26875,0)
GPGPU-Sim uArch: Shader 10 finished CTA #0 (26891,0), 2 CTAs running
GPGPU-Sim uArch: core: 10, cta: 0 initialized @(26892,0)
GPGPU-Sim PTX: 18600000 instructions simulated : ctaid=(248,0,0) tid=(73,0,0)
GPGPU-Sim uArch: cycles simulated: 27000  inst.: 17883717 (ipc=662.4) sim_rate=308339 (inst/sec) elapsed = 0:0:00:58 / Tue Jan 29 23:10:32 2019
GPGPU-Sim PTX: 18700000 instructions simulated : ctaid=(253,0,0) tid=(53,0,0)
GPGPU-Sim uArch: Shader 6 finished CTA #0 (27081,0), 2 CTAs running
GPGPU-Sim uArch: core:  6, cta: 0 initialized @(27082,0)
GPGPU-Sim uArch: Shader 12 finished CTA #0 (27093,0), 2 CTAs running
GPGPU-Sim uArch: core: 12, cta: 0 initialized @(27094,0)
GPGPU-Sim uArch: Shader 2 finished CTA #0 (27126,0), 2 CTAs running
GPGPU-Sim uArch: core:  2, cta: 0 initialized @(27127,0)
GPGPU-Sim uArch: Shader 14 finished CTA #0 (27134,0), 2 CTAs running
GPGPU-Sim uArch: core: 14, cta: 0 initialized @(27135,0)
GPGPU-Sim PTX: 18800000 instructions simulated : ctaid=(264,0,0) tid=(452,0,0)
GPGPU-Sim PTX: 18900000 instructions simulated : ctaid=(270,0,0) tid=(459,0,0)
GPGPU-Sim uArch: Shader 13 finished CTA #0 (27313,0), 2 CTAs running
GPGPU-Sim uArch: core: 13, cta: 0 initialized @(27314,0)
GPGPU-Sim PTX: 19000000 instructions simulated : ctaid=(266,0,0) tid=(22,0,0)
GPGPU-Sim uArch: Shader 3 finished CTA #1 (27465,0), 2 CTAs running
GPGPU-Sim uArch: core:  3, cta: 1 initialized @(27466,0)
GPGPU-Sim uArch: cycles simulated: 27500  inst.: 18266581 (ipc=664.2) sim_rate=309603 (inst/sec) elapsed = 0:0:00:59 / Tue Jan 29 23:10:33 2019
GPGPU-Sim PTX: 19100000 instructions simulated : ctaid=(264,0,0) tid=(127,0,0)
GPGPU-Sim uArch: Shader 5 finished CTA #0 (27574,0), 2 CTAs running
GPGPU-Sim uArch: core:  5, cta: 0 initialized @(27575,0)
GPGPU-Sim uArch: Shader 9 finished CTA #0 (27602,0), 2 CTAs running
GPGPU-Sim uArch: core:  9, cta: 0 initialized @(27603,0)
GPGPU-Sim PTX: 19200000 instructions simulated : ctaid=(265,0,0) tid=(74,0,0)
GPGPU-Sim uArch: Shader 7 finished CTA #0 (27673,0), 2 CTAs running
GPGPU-Sim uArch: core:  7, cta: 0 initialized @(27674,0)
GPGPU-Sim uArch: Shader 11 finished CTA #0 (27763,0), 2 CTAs running
GPGPU-Sim uArch: core: 11, cta: 0 initialized @(27764,0)
GPGPU-Sim PTX: 19300000 instructions simulated : ctaid=(263,0,0) tid=(212,0,0)
GPGPU-Sim uArch: Shader 0 finished CTA #0 (27839,0), 2 CTAs running
GPGPU-Sim uArch: core:  0, cta: 0 initialized @(27840,0)
GPGPU-Sim uArch: Shader 4 finished CTA #1 (27871,0), 2 CTAs running
GPGPU-Sim uArch: core:  4, cta: 1 initialized @(27872,0)
GPGPU-Sim PTX: 19400000 instructions simulated : ctaid=(272,0,0) tid=(94,0,0)
GPGPU-Sim uArch: Shader 1 finished CTA #1 (27986,0), 2 CTAs running
GPGPU-Sim uArch: core:  1, cta: 1 initialized @(27987,0)
GPGPU-Sim uArch: cycles simulated: 28000  inst.: 18654781 (ipc=666.2) sim_rate=310913 (inst/sec) elapsed = 0:0:01:00 / Tue Jan 29 23:10:34 2019
GPGPU-Sim PTX: 19500000 instructions simulated : ctaid=(268,0,0) tid=(245,0,0)
GPGPU-Sim PTX: 19600000 instructions simulated : ctaid=(287,0,0) tid=(243,0,0)
GPGPU-Sim uArch: Shader 10 finished CTA #1 (28224,0), 2 CTAs running
GPGPU-Sim uArch: core: 10, cta: 1 initialized @(28225,0)
GPGPU-Sim uArch: Shader 8 finished CTA #1 (28231,0), 2 CTAs running
GPGPU-Sim uArch: core:  8, cta: 1 initialized @(28232,0)
GPGPU-Sim PTX: 19700000 instructions simulated : ctaid=(287,0,0) tid=(45,0,0)
GPGPU-Sim uArch: Shader 12 finished CTA #1 (28395,0), 2 CTAs running
GPGPU-Sim uArch: core: 12, cta: 1 initialized @(28396,0)
GPGPU-Sim PTX: 19800000 instructions simulated : ctaid=(249,0,0) tid=(218,0,0)
GPGPU-Sim uArch: Shader 14 finished CTA #1 (28462,0), 2 CTAs running
GPGPU-Sim uArch: core: 14, cta: 1 initialized @(28463,0)
GPGPU-Sim uArch: cycles simulated: 28500  inst.: 19027881 (ipc=667.6) sim_rate=311932 (inst/sec) elapsed = 0:0:01:01 / Tue Jan 29 23:10:35 2019
GPGPU-Sim PTX: 19900000 instructions simulated : ctaid=(264,0,0) tid=(135,0,0)
GPGPU-Sim uArch: Shader 6 finished CTA #1 (28565,0), 2 CTAs running
GPGPU-Sim uArch: core:  6, cta: 1 initialized @(28566,0)
GPGPU-Sim PTX: 20000000 instructions simulated : ctaid=(250,0,0) tid=(437,0,0)
GPGPU-Sim PTX: 20100000 instructions simulated : ctaid=(275,0,0) tid=(406,0,0)
GPGPU-Sim uArch: Shader 2 finished CTA #1 (28790,0), 2 CTAs running
GPGPU-Sim uArch: core:  2, cta: 1 initialized @(28791,0)
GPGPU-Sim PTX: 20200000 instructions simulated : ctaid=(265,0,0) tid=(493,0,0)
GPGPU-Sim uArch: Shader 3 finished CTA #2 (28921,0), 2 CTAs running
GPGPU-Sim uArch: core:  3, cta: 2 initialized @(28922,0)
GPGPU-Sim uArch: Shader 13 finished CTA #1 (28983,0), 2 CTAs running
GPGPU-Sim uArch: core: 13, cta: 1 initialized @(28984,0)
GPGPU-Sim uArch: Shader 5 finished CTA #1 (28989,0), 2 CTAs running
GPGPU-Sim uArch: core:  5, cta: 1 initialized @(28990,0)
GPGPU-Sim uArch: Shader 9 finished CTA #1 (28997,0), 2 CTAs running
GPGPU-Sim uArch: core:  9, cta: 1 initialized @(28998,0)
GPGPU-Sim uArch: cycles simulated: 29000  inst.: 19409497 (ipc=669.3) sim_rate=308087 (inst/sec) elapsed = 0:0:01:03 / Tue Jan 29 23:10:37 2019
GPGPU-Sim PTX: 20300000 instructions simulated : ctaid=(277,0,0) tid=(231,0,0)
GPGPU-Sim PTX: 20400000 instructions simulated : ctaid=(284,0,0) tid=(357,0,0)
GPGPU-Sim uArch: Shader 0 finished CTA #1 (29160,0), 2 CTAs running
GPGPU-Sim uArch: core:  0, cta: 1 initialized @(29161,0)
GPGPU-Sim uArch: Shader 7 finished CTA #1 (29239,0), 2 CTAs running
GPGPU-Sim uArch: core:  7, cta: 1 initialized @(29240,0)
GPGPU-Sim uArch: Shader 11 finished CTA #1 (29242,0), 2 CTAs running
GPGPU-Sim uArch: core: 11, cta: 1 initialized @(29243,0)
GPGPU-Sim PTX: 20500000 instructions simulated : ctaid=(265,0,0) tid=(214,0,0)
[...]
gpgpu_stall_shd_mem[g_mem_st][wb_rsrv_fail] = 0
gpgpu_stall_shd_mem[l_mem_ld][mshr_rc] = 0
gpgpu_stall_shd_mem[l_mem_ld][icnt_rc] = 0
gpgpu_stall_shd_mem[l_mem_ld][wb_icnt_rc] = 0
gpgpu_stall_shd_mem[l_mem_ld][wb_rsrv_fail] = 0
gpgpu_stall_shd_mem[l_mem_st][mshr_rc] = 0
gpgpu_stall_shd_mem[l_mem_st][icnt_rc] = 0
gpgpu_stall_shd_mem[l_mem_ld][wb_icnt_rc] = 0
gpgpu_stall_shd_mem[l_mem_ld][wb_rsrv_fail] = 0
gpu_reg_bank_conflict_stalls = 0
Warp Occupancy Distribution:
Stall:115809	W0_Idle:71467	W0_Scoreboard:368234	W1:7816	W2:7816	W3:0	W4:7816	W5:0	W6:0	W7:0	W8:7816	W9:0	W10:0	W11:0	W12:0	W13:0	W14:0	W15:0	W16:7816	W17:0	W18:0	W19:0	W20:0	W21:0	W22:0	W23:0	W24:0	W25:0	W26:0	W27:0	W28:0	W29:0	W30:0	W31:0	W32:2243094
traffic_breakdown_coretomem[CONST_ACC_R] = 120 {8:15,}
traffic_breakdown_coretomem[GLOBAL_ACC_R] = 250000 {8:31250,}
traffic_breakdown_coretomem[GLOBAL_ACC_W] = 625280 {40:15632,}
traffic_breakdown_coretomem[INST_ACC_R] = 600 {8:75,}
traffic_breakdown_memtocore[CONST_ACC_R] = 1080 {72:15,}
traffic_breakdown_memtocore[GLOBAL_ACC_R] = 4250000 {136:31250,}
traffic_breakdown_memtocore[GLOBAL_ACC_W] = 125056 {8:15632,}
traffic_breakdown_memtocore[INST_ACC_R] = 10200 {136:75,}
maxmrqlatency = 211 
maxdqlatency = 0 
maxmflatency = 929 
averagemflatency = 266 
max_icnt2mem_latency = 799 
max_icnt2sh_latency = 95304 
mrq_lat_table:26292 	2203 	944 	717 	699 	316 	237 	25 	0 	0 	0 	0 	0 	0 	0 	0 	0 	0 	0 	0 	0 	0 	0 	0 	0 	0 	0 	0 	0 	0 	0 	0 	
dq_lat_table:0 	0 	0 	0 	0 	0 	0 	0 	0 	0 	0 	0 	0 	0 	0 	0 	0 	0 	0 	0 	0 	0 	0 	0 	0 	0 	0 	0 	0 	0 	0 	0 	
mf_lat_table:0 	0 	0 	0 	0 	0 	0 	12499 	32980 	1418 	0 	0 	0 	0 	0 	0 	0 	0 	0 	0 	0 	0 	0 	0 	0 	0 	0 	0 	0 	0 	0 	0 	
icnt2mem_lat_table:0 	0 	0 	30641 	5939 	4548 	3259 	1392 	709 	484 	0 	0 	0 	0 	0 	0 	0 	0 	0 	0 	0 	0 	0 	0 	
icnt2sh_lat_table:0 	0 	0 	15399 	12316 	3296 	254 	0 	0 	0 	0 	0 	720 	1196 	2787 	5674 	5255 	0 	0 	0 	0 	0 	0 	0 	
mf_lat_pw_table:0 	0 	0 	0 	0 	0 	0 	131 	48 	4 	0 	0 	0 	0 	0 	0 	0 	0 	0 	0 	0 	0 	0 	0 	0 	0 	0 	0 	0 	0 	0 	0 	
maximum concurrent accesses to same row:
dram[0]:        32        32        32        32        32        32        32        32        32        32        32        32        32        32        32        32 
dram[1]:        32        32        32        32        32        32        32        32        32        32        32        32        32        32        32        32 
dram[2]:        32        32        32        32        32        32        32        32        32        32        32        32        32        32        32        32 
dram[3]:        32        32        32        32        32        32        32        32        32        32        32        32        32        32        32        32 
dram[4]:        32        32        32        32        32        32        32        32        32        32        32        32        32        32        32        32 
dram[5]:        32        32        32        32        32        32        32        32        32        32        32        32        32        32        32        32 
maximum service time to same row:
dram[0]:      9322      9363      9987      9933     11084     11160     10547     10493     10815     10836     11463     11591     13048     13140      9088      9082 
dram[1]:      9316      9373      9987      9891     11074     11157     10571     10490     10812     10952     11471     11628     13038     13160      9100      9019 
dram[2]:      9341      9109     10021      9854     11063     11125     10545     10486     10902     10885     11465     11573     13081     13432      9115      8974 
dram[3]:      9386      9105     10050      9880     11120     11119     10568     10487     10874      9047     11481     11567     13081     13498      9100      8969 
dram[4]:      9351      9128      9903      9831     11159     11122     10515     10504     10869      9518     11487     11613     13076     13574      9002      8968 
dram[5]:      9357      9137      9881      9845     11175     10977     10515     10581     10785     11125     11537     11595     13132     13537      9057      9002 
average row accesses per activate:
dram[0]: 24.846153 32.000000 32.000000 32.000000 30.000000 30.000000 32.000000 32.000000 26.076923 25.692308 32.000000 32.000000 32.000000 32.000000 32.000000 32.000000 
dram[1]: 29.272728 32.000000 32.000000 32.000000 30.000000 30.000000 32.000000 32.000000 20.875000 25.692308 32.000000 32.000000 32.000000 32.000000 32.000000 32.000000 
dram[2]: 29.181818 32.000000 32.000000 32.000000 30.000000 30.181818 32.000000 32.000000 22.266666 27.750000 32.000000 32.000000 32.000000 32.000000 32.000000 32.000000 
dram[3]: 32.000000 32.000000 32.000000 32.000000 30.000000 30.181818 32.000000 32.000000 25.692308 26.230770 32.000000 32.000000 32.000000 32.000000 32.000000 32.000000 
dram[4]: 32.000000 32.000000 32.000000 32.000000 30.000000 30.181818 32.000000 32.000000 20.875000 20.117647 32.000000 32.000000 32.000000 32.000000 32.000000 32.000000 
dram[5]: 32.000000 32.000000 32.000000 32.000000 30.000000 30.181818 32.000000 32.000000 22.266666 22.799999 32.000000 32.000000 32.000000 32.000000 32.000000 32.000000 
average row locality = 31433/1040 = 30.224039
number of total memory accesses made:
dram[0]:         0         0         0         0         0         0         0         0         0         0         0         0         0         0         0         0 
dram[1]:         0         0         0         0         0         0         0         0         0         0         0         0         0         0         0         0 
dram[2]:         0         0         0         0         0         0         0         0         0         0         0         0         0         0         0         0 
dram[3]:         0         0         0         0         0         0         0         0         0         0         0         0         0         0         0         0 
dram[4]:         0         0         0         0         0         0         0         0         0         0         0         0         0         0         0         0 
dram[5]:         0         0         0         0         0         0         0         0         0         0         0         0         0         0         0         0 
total accesses: 0
min_bank_accesses = 0!
min_chip_accesses = 0!
number of total read accesses:
dram[0]:       323       320       320       320       330       330       352       352       325       324       320       320       320       320       320       320 
dram[1]:       322       320       320       320       330       330       352       352       324       324       320       320       320       320       320       320 
dram[2]:       321       320       320       320       330       332       352       352       324       324       320       320       320       320       320       320 
dram[3]:       320       320       320       320       330       332       352       352       324       324       320       320       320       320       320       320 
dram[4]:       320       320       320       320       330       332       352       352       324       324       320       320       320       320       320       320 
dram[5]:       320       320       320       320       330       332       352       352       324       324       320       320       320       320       320       320 
total reads: 31287
bank skew: 352/320 = 1.10
chip skew: 5216/5214 = 1.00
number of total write accesses:
dram[0]:         0         0         0         0         0         0         0         0        14        10         0         0         0         0         0         0 
dram[1]:         0         0         0         0         0         0         0         0        10        10         0         0         0         0         0         0 
dram[2]:         0         0         0         0         0         0         0         0        10         9         0         0         0         0         0         0 
dram[3]:         0         0         0         0         0         0         0         0        10        17         0         0         0         0         0         0 
dram[4]:         0         0         0         0         0         0         0         0        10        18         0         0         0         0         0         0 
dram[5]:         0         0         0         0         0         0         0         0        10        18         0         0         0         0         0         0 
total reads: 146
min_bank_accesses = 0!
chip skew: 28/19 = 1.47
average mf latency per bank:
dram[0]:        287       283       269       271       285       277       293       298      1033       848       284       282       298       294       293       294
dram[1]:        282       280       279       270       287       276       295       299       865       873       283       280       301       295       298       291
dram[2]:        281       289       276       275       290       278       298       300       881       845       286       289       297       294       294       296
dram[3]:        276       289       272       275       286       280       300       300       879      2464       287       289       299       294       290       300
dram[4]:        282       285       272       275       281       283       309       307       901      1671       290       291       301       299       299       295
dram[5]:        279       297       270       283       278       283       302       304       853      1456       282       286       294       296       292       297
maximum mf latency per bank:
dram[0]:        531       558       440       434       625       514       594       655       705       617       581       557       779       798       776       767
dram[1]:        523       547       521       395       571       491       646       655       682       565       638       575       870       815       786       797
dram[2]:        526       643       515       473       534       576       645       656       639       705       598       684       876       745       692       826
dram[3]:        455       655       436       449       545       597       703       687       583       929       548       547       857       726       809       896
dram[4]:        603       654       479       536       532       568       719       625       757       786       601       557       869       928       853       732
dram[5]:        542       632       454       566       514       514       725       671       714       571       539       537       791       880       785       819
Memory Partition 0: 
Cache L2_bank_000:
MSHR contents

Cache L2_bank_001:
MSHR contents

In Dram Latency Queue (total = 0): 
DRAM[0]: 16 bks, busW=4 BL=8 CL=12, tRRD=2 tCCD=6, tRCD=12 tRAS=28 tRP=12 tRC=40
n_cmd=125802 n_nop=115012 n_act=173 n_pre=157 n_req=5240 n_rd=10432 n_write=28 bw_util=0.1663
n_activity=56658 dram_eff=0.3692
bk0: 646a 123894i bk1: 640a 123690i bk2: 640a 123857i bk3: 640a 123744i bk4: 660a 123757i bk5: 660a 123708i bk6: 704a 123638i bk7: 704a 123126i bk8: 650a 123683i bk9: 648a 123525i bk10: 640a 123559i bk11: 640a 123340i bk12: 640a 123597i bk13: 640a 123234i bk14: 640a 123896i bk15: 640a 123582i 
dram_util_bins: 0 0 0 0 0 0 0 0 0 0
dram_eff_bins: 0 0 0 0 0 0 0 0 0 0
mrqq: max=16 avg=0.114553
Memory Partition 1: 
Cache L2_bank_002:
MSHR contents

Cache L2_bank_003:
MSHR contents

In Dram Latency Queue (total = 0): 
DRAM[1]: 16 bks, busW=4 BL=8 CL=12, tRRD=2 tCCD=6, tRCD=12 tRAS=28 tRP=12 tRC=40
n_cmd=125802 n_nop=115018 n_act=174 n_pre=158 n_req=5234 n_rd=10428 n_write=24 bw_util=0.1662
n_activity=56977 dram_eff=0.3669
bk0: 644a 123986i bk1: 640a 123753i bk2: 640a 123632i bk3: 640a 123702i bk4: 660a 123821i bk5: 660a 123673i bk6: 704a 123653i bk7: 704a 123131i bk8: 648a 123686i bk9: 648a 123472i bk10: 640a 123680i bk11: 640a 123245i bk12: 640a 123701i bk13: 640a 123402i bk14: 640a 123855i bk15: 640a 123681i 
dram_util_bins: 0 0 0 0 0 0 0 0 0 0
dram_eff_bins: 0 0 0 0 0 0 0 0 0 0
mrqq: max=16 avg=0.0957298
Memory Partition 2: 
Cache L2_bank_004:
MSHR contents

Cache L2_bank_005:
MSHR contents

In Dram Latency Queue (total = 0): 
DRAM[2]: 16 bks, busW=4 BL=8 CL=12, tRRD=2 tCCD=6, tRCD=12 tRAS=28 tRP=12 tRC=40
n_cmd=125802 n_nop=115022 n_act=172 n_pre=156 n_req=5234 n_rd=10430 n_write=22 bw_util=0.1662
n_activity=56768 dram_eff=0.3682
bk0: 642a 123940i bk1: 640a 123734i bk2: 640a 123830i bk3: 640a 123731i bk4: 660a 123738i bk5: 664a 123586i bk6: 704a 123599i bk7: 704a 123073i bk8: 648a 123717i bk9: 648a 123348i bk10: 640a 123555i bk11: 640a 123317i bk12: 640a 123531i bk13: 640a 123379i bk14: 640a 123870i bk15: 640a 123563i 
dram_util_bins: 0 0 0 0 0 0 0 0 0 0
dram_eff_bins: 0 0 0 0 0 0 0 0 0 0
mrqq: max=16 avg=0.127256
Memory Partition 3: 
Cache L2_bank_006:
MSHR contents

Cache L2_bank_007:
MSHR contents

In Dram Latency Queue (total = 0): 
DRAM[3]: 16 bks, busW=4 BL=8 CL=12, tRRD=2 tCCD=6, tRCD=12 tRAS=28 tRP=12 tRC=40
n_cmd=125802 n_nop=115019 n_act=170 n_pre=154 n_req=5241 n_rd=10428 n_write=31 bw_util=0.1663
n_activity=56736 dram_eff=0.3687
bk0: 640a 124007i bk1: 640a 123569i bk2: 640a 123827i bk3: 640a 123660i bk4: 660a 123848i bk5: 664a 123669i bk6: 704a 123574i bk7: 704a 123166i bk8: 648a 123759i bk9: 648a 123494i bk10: 640a 123624i bk11: 640a 123170i bk12: 640a 123598i bk13: 640a 123450i bk14: 640a 123857i bk15: 640a 123427i 
dram_util_bins: 0 0 0 0 0 0 0 0 0 0
dram_eff_bins: 0 0 0 0 0 0 0 0 0 0
mrqq: max=16 avg=0.126715
Memory Partition 4: 
Cache L2_bank_008:
MSHR contents

Cache L2_bank_009:
MSHR contents

In Dram Latency Queue (total = 0): 
DRAM[4]: 16 bks, busW=4 BL=8 CL=12, tRRD=2 tCCD=6, tRCD=12 tRAS=28 tRP=12 tRC=40
n_cmd=125802 n_nop=115004 n_act=177 n_pre=161 n_req=5242 n_rd=10428 n_write=32 bw_util=0.1663
n_activity=56457 dram_eff=0.3705
bk0: 640a 124006i bk1: 640a 123775i bk2: 640a 123825i bk3: 640a 123596i bk4: 660a 123653i bk5: 664a 123573i bk6: 704a 123471i bk7: 704a 123126i bk8: 648a 123640i bk9: 648a 123419i bk10: 640a 123601i bk11: 640a 123420i bk12: 640a 123499i bk13: 640a 123286i bk14: 640a 123832i bk15: 640a 123605i 
dram_util_bins: 0 0 0 0 0 0 0 0 0 0
dram_eff_bins: 0 0 0 0 0 0 0 0 0 0
mrqq: max=16 avg=0.124442
Memory Partition 5: 
Cache L2_bank_010:
MSHR contents

Cache L2_bank_011:
MSHR contents

In Dram Latency Queue (total = 0): 
DRAM[5]: 16 bks, busW=4 BL=8 CL=12, tRRD=2 tCCD=6, tRCD=12 tRAS=28 tRP=12 tRC=40
n_cmd=125802 n_nop=115010 n_act=174 n_pre=158 n_req=5242 n_rd=10428 n_write=32 bw_util=0.1663
n_activity=56815 dram_eff=0.3682
bk0: 640a 123969i bk1: 640a 123750i bk2: 640a 123796i bk3: 640a 123554i bk4: 660a 123832i bk5: 664a 123563i bk6: 704a 123560i bk7: 704a 123229i bk8: 648a 123702i bk9: 648a 123272i bk10: 640a 123603i bk11: 640a 123402i bk12: 640a 123444i bk13: 640a 123543i bk14: 640a 123833i bk15: 640a 123511i 
dram_util_bins: 0 0 0 0 0 0 0 0 0 0
dram_eff_bins: 0 0 0 0 0 0 0 0 0 0
mrqq: max=16 avg=0.12445

========= L2 cache stats =========
L2_cache_bank[0]: Access = 3945, Miss = 2610, Miss_rate = 0.662, Pending_hits = 18, Reservation_fails = 745
L2_cache_bank[1]: Access = 3628, Miss = 2606, Miss_rate = 0.718, Pending_hits = 6, Reservation_fails = 281
L2_cache_bank[2]: Access = 3658, Miss = 2608, Miss_rate = 0.713, Pending_hits = 11, Reservation_fails = 394
L2_cache_bank[3]: Access = 3628, Miss = 2606, Miss_rate = 0.718, Pending_hits = 6, Reservation_fails = 300
L2_cache_bank[4]: Access = 3643, Miss = 2607, Miss_rate = 0.716, Pending_hits = 8, Reservation_fails = 326
L2_cache_bank[5]: Access = 3630, Miss = 2608, Miss_rate = 0.718, Pending_hits = 6, Reservation_fails = 365
L2_cache_bank[6]: Access = 3628, Miss = 2606, Miss_rate = 0.718, Pending_hits = 6, Reservation_fails = 264
L2_cache_bank[7]: Access = 4652, Miss = 2608, Miss_rate = 0.561, Pending_hits = 11, Reservation_fails = 496
L2_cache_bank[8]: Access = 3628, Miss = 2606, Miss_rate = 0.718, Pending_hits = 6, Reservation_fails = 366
L2_cache_bank[9]: Access = 4652, Miss = 2608, Miss_rate = 0.561, Pending_hits = 12, Reservation_fails = 653
L2_cache_bank[10]: Access = 3628, Miss = 2606, Miss_rate = 0.718, Pending_hits = 6, Reservation_fails = 249
L2_cache_bank[11]: Access = 4652, Miss = 2608, Miss_rate = 0.561, Pending_hits = 12, Reservation_fails = 651
L2_total_cache_accesses = 46972
L2_total_cache_misses = 31287
L2_total_cache_miss_rate = 0.6661
L2_total_cache_pending_hits = 108
L2_total_cache_reservation_fails = 5090
L2_total_cache_breakdown:
	L2_cache_stats_breakdown[GLOBAL_ACC_R][MISS] = 31250
	L2_cache_stats_breakdown[GLOBAL_ACC_R][RESERVATION_FAIL] = 954
	L2_cache_stats_breakdown[CONST_ACC_R][HIT] = 11
	L2_cache_stats_breakdown[CONST_ACC_R][HIT_RESERVED] = 3
	L2_cache_stats_breakdown[CONST_ACC_R][MISS] = 1
	L2_cache_stats_breakdown[CONST_ACC_R][RESERVATION_FAIL] = 102
	L2_cache_stats_breakdown[GLOBAL_ACC_W][HIT] = 15509
	L2_cache_stats_breakdown[GLOBAL_ACC_W][HIT_RESERVED] = 92
	L2_cache_stats_breakdown[GLOBAL_ACC_W][MISS] = 31
	L2_cache_stats_breakdown[GLOBAL_ACC_W][RESERVATION_FAIL] = 3681
	L2_cache_stats_breakdown[INST_ACC_R][HIT] = 57
	L2_cache_stats_breakdown[INST_ACC_R][HIT_RESERVED] = 13
	L2_cache_stats_breakdown[INST_ACC_R][MISS] = 5
	L2_cache_stats_breakdown[INST_ACC_R][RESERVATION_FAIL] = 353
L2_cache_data_port_util = 0.014
L2_cache_fill_port_util = 0.109

icnt_total_pkts_mem_to_simt=172302
icnt_total_pkts_simt_to_mem=62604
LD_mem_lat_dist  0 0 0 0 0 0 0 0 0 0 0 0 0 0 0 0 0 0 0 0 0 0 0 0 0 0 0
ST_mem_lat_dist  0 0 0 0 0 0 0 0 0 0 0 0 0 0 0 0 0 0 0 0 0 0 0 0 0 0 0
----------------------------Interconnect-DETAILS--------------------------------
Class 0:
Packet latency average = 21.7824
	minimum = 6
	maximum = 439
Network latency average = 15.9872
	minimum = 6
	maximum = 268
Slowest packet = 3103
Flit latency average = 13.8602
	minimum = 6
	maximum = 267
Slowest flit = 9257
Fragmentation average = 0.00600358
	minimum = 0
	maximum = 126
Injected packet rate average = 0.0365081
	minimum = 0.0322963 (at node 11)
	maximum = 0.0488117 (at node 22)
Accepted packet rate average = 0.0365081
	minimum = 0.0322963 (at node 11)
	maximum = 0.0488117 (at node 22)
Injected flit rate average = 0.0912882
	minimum = 0.0430408 (at node 11)
	maximum = 0.158103 (at node 22)
Accepted flit rate average= 0.0912882
	minimum = 0.0488117 (at node 16)
	maximum = 0.122176 (at node 3)
Injected packet length average = 2.50049
Accepted packet length average = 2.50049
Total in-flight flits = 0 (0 measured)
====== Overall Traffic Statistics ======
====== Traffic class 0 ======
Packet latency average = 21.7824 (1 samples)
	minimum = 6 (1 samples)
	maximum = 439 (1 samples)
Network latency average = 15.9872 (1 samples)
	minimum = 6 (1 samples)
	maximum = 268 (1 samples)
Flit latency average = 13.8602 (1 samples)
	minimum = 6 (1 samples)
	maximum = 267 (1 samples)
Fragmentation average = 0.00600358 (1 samples)
	minimum = 0 (1 samples)
	maximum = 126 (1 samples)
Injected packet rate average = 0.0365081 (1 samples)
	minimum = 0.0322963 (1 samples)
	maximum = 0.0488117 (1 samples)
Accepted packet rate average = 0.0365081 (1 samples)
	minimum = 0.0322963 (1 samples)
	maximum = 0.0488117 (1 samples)
Injected flit rate average = 0.0912882 (1 samples)
	minimum = 0.0430408 (1 samples)
	maximum = 0.158103 (1 samples)
Accepted flit rate average = 0.0912882 (1 samples)
	minimum = 0.0488117 (1 samples)
	maximum = 0.122176 (1 samples)
Injected packet size average = 2.50049 (1 samples)
Accepted packet size average = 2.50049 (1 samples)
Hops average = 1 (1 samples)
----------------------------END-of-Interconnect-DETAILS-------------------------


gpgpu_simulation_time = 0 days, 0 hrs, 3 min, 42 sec (222 sec)
gpgpu_simulation_rate = 310907 (inst/sec)
gpgpu_simulation_rate = 429 (cycle/sec)
221.905762 s
Copying data from device to host...0.000647 s
Verifying results...TEST PASSED

